Circuit: * C:\repos\SDG3\Simulation\2113GateDriver.asc

Instance "m:u1:_gd_template:_lo_stage:_lo_nmos": Length shorter than recommended for a level 1 MOSFET.
Instance "m:u1:_gd_template:_lo_stage:_lo_pmos": Length shorter than recommended for a level 1 MOSFET.
Instance "m:u1:_gd_template:_ho_stage:_ho_nmos": Length shorter than recommended for a level 1 MOSFET.
Instance "m:u1:_gd_template:_ho_stage:_ho_pmos": Length shorter than recommended for a level 1 MOSFET.
Direct Newton iteration failed to find .op point.  (Use ".option noopiter" to skip.)
Starting Gmin stepping
Gmin = 10
Gmin = 1.07374
Gmin = 0.115292
Gmin = 0.0123794
Gmin = 0.00132923
vernier = 0.5
vernier = 0.25
vernier = 0.125
vernier = 0.0625
Gmin = 0.00100083
vernier = 0.03125
vernier = 0.015625
vernier = 0.0078125
vernier = 0.00390625
vernier = 0.00195313
Gmin = 0.00100083
vernier = 0.000976563
vernier = 0.000488281
Gmin = 0
Gmin stepping failed

Starting source stepping with srcstepmethod=0
Source Step = 3.0303%
Source Step = 33.3333%
Source Step = 63.6364%
Source Step = 93.9394%
Source stepping succeeded in finding the operating point.

Heightened Def Con from 4.16422e-06 to 4.16547e-06
Heightened Def Con from 4.16549e-06 to 4.16636e-06
Heightened Def Con from 0.000102622 to 0.000102623
Heightened Def Con from 0.000102623 to 0.000102635
Heightened Def Con from 0.000104161 to 0.000104164
Heightened Def Con from 0.000104164 to 0.000104164
Heightened Def Con from 0.000104164 to 0.000104164
Heightened Def Con from 0.000104164 to 0.000104164
Heightened Def Con from 0.000104164 to 0.000104164
Heightened Def Con from 0.000104164 to 0.000104164
Heightened Def Con from 0.000104164 to 0.000104164
Heightened Def Con from 0.000104164 to 0.000104164
Heightened Def Con from 0.000104164 to 0.000104164
Heightened Def Con from 0.000104164 to 0.000104164
Heightened Def Con from 0.000104164 to 0.000104164
Heightened Def Con from 0.000104164 to 0.000104164
Heightened Def Con from 0.000104164 to 0.000104164
Heightened Def Con from 0.000104164 to 0.000104164
Heightened Def Con from 0.000104164 to 0.000104164
Heightened Def Con from 0.000104164 to 0.000104164
Heightened Def Con from 0.000104164 to 0.000104164
Heightened Def Con from 0.000104164 to 0.000104164
Heightened Def Con from 0.000104164 to 0.000104164
Heightened Def Con from 0.000104164 to 0.000104164
Heightened Def Con from 0.000104164 to 0.000104164
Heightened Def Con from 0.000104164 to 0.000104164
Heightened Def Con from 0.000104164 to 0.000104164
Heightened Def Con from 0.000104164 to 0.000104164
Heightened Def Con from 0.000104164 to 0.000104164
Heightened Def Con from 0.000104164 to 0.000104164
Heightened Def Con from 0.000104164 to 0.000104164
Heightened Def Con from 0.000104164 to 0.000104164
Heightened Def Con from 0.000104164 to 0.000104164
Heightened Def Con from 0.000104164 to 0.000104164
Heightened Def Con from 0.000104164 to 0.000104164
Heightened Def Con from 0.000104164 to 0.000104164
Heightened Def Con from 0.000104164 to 0.000104164
Heightened Def Con from 0.000104164 to 0.000104164
Heightened Def Con from 0.000104164 to 0.000104164
Heightened Def Con from 0.000104164 to 0.000104164
Heightened Def Con from 0.000104164 to 0.000104164
Heightened Def Con from 0.000104164 to 0.000104164
Heightened Def Con from 0.000104164 to 0.000104164
Heightened Def Con from 0.000104164 to 0.000104164
Heightened Def Con from 0.000104164 to 0.000104164
Heightened Def Con from 0.000104164 +to 0.000104164
Heightened Def Con from 0.000104164 to 0.000104164
Heightened Def Con from 0.000104164 to 0.000104164
Heightened Def Con from 0.000104164 to 0.000104164
Heightened Def Con from 0.000104164 to 0.000104164
Heightened Def Con from 0.000104164 to 0.000104164
Heightened Def Con from 0.000104164 to 0.000104164
Heightened Def Con from 0.000104164 to 0.000104164
Heightened Def Con from 0.000104164 to 0.000104164
Heightened Def Con from 0.000104164 to 0.000104164
Heightened Def Con from 0.000104164 to 0.000104164
Heightened Def Con from 0.000104164 to 0.000104164
Heightened Def Con from 0.000104164 to 0.000104164
Heightened Def Con from 0.000104164 to 0.000104164
Heightened Def Con from 0.000104164 to 0.000104164
Heightened Def Con from 0.000104164 to 0.000104164
Heightened Def Con from 0.000104164 to 0.000104164
Heightened Def Con from 0.000104164 to 0.000104164
Heightened Def Con from 0.000104164 to 0.000104164
Heightened Def Con from 0.000104164 to 0.000104164
Heightened Def Con from 0.000104164 to 0.000104164
Heightened Def Con from 0.000104164 to 0.000104164
Heightened Def Con from 0.000104164 to 0.000104164
Heightened Def Con from 0.000104164 to 0.000104164
Heightened Def Con from 0.000104164 to 0.000104164
Heightened Def Con from 0.000104164 to 0.000104164
Heightened Def Con from 0.000104164 to 0.000104164
Heightened Def Con from 0.000104164 to 0.000104164
Heightened Def Con from 0.000104164 to 0.000104164
Heightened Def Con from 0.000104164 to 0.000104164
Heightened Def Con from 0.000104164 to 0.000104164
Heightened Def Con from 0.000104164 to 0.000104164
Heightened Def Con from 0.000104164 to 0.000104164
Heightened Def Con from 0.000104164 to 0.000104164
Heightened Def Con from 0.000104164 to 0.000104164
Heightened Def Con from 0.000104164 to 0.000104164
Heightened Def Con from 0.000104164 to 0.000104164
Heightened Def Con from 0.000104164 to 0.000104164
Heightened Def Con from 0.000104164 to 0.000104164
Heightened Def Con from 0.000104164 to 0.000104164
Heightened Def Con from 0.000104164 to 0.000104164
Heightened Def Con from 0.000104164 to 0.000104164
Heightened Def Con from 0.000104164 to 0.000104164
Heightened Def Con from 0.000104164 to 0.000104164
Heightened Def Con from 0.000104164 to 0.000104164
Heightened Def Con from 0.000104164 to 0.000104164
Heightened Def Con from 0.000104164 to 0.000104164
Heightened Def Con from 0.000104164 to 0.000104164
Heightened Def Con from 0.000104164 to 0.000104164
Heightened Def Con from 0.000104164 to 0.000104164
Heightened Def Con from 0.000104164 to 0.000104164
Heightened Def Con from 0.000104164 to 0.000104164
Heightened Def Con from 0.000104164 to 0.000104164
Heightened Def Con from 0.000104164 to 0.000104164
Heightened Def Con from 0.000104164 to 0.000104164
Heightened Def Con from 0.000104164 to 0.000104164
Heightened Def Con from 0.000104164 to 0.000104164
Heightened Def Con from 0.000104164 to 0.000104164
Heightened Def Con from 0.000104164 to 0.000104164
Heightened Def Con from 0.000104164 to 0.000104164
Heightened Def Con from 0.000104164 to 0.000104164
Heightened Def Con from 0.000104164 to 0.000104164
Heightened Def Con from 0.000104164 to 0.000104164
Heightened Def Con from 0.000104164 to 0.000104164
Heightened Def Con from 0.000104164 to 0.000104164
Heightened Def Con from 0.000104164 to 0.000104164
Heightened Def Con from 0.000104164 to 0.000104164
Heightened Def Con from 0.000104164 to 0.000104164
Heightened Def Con from 0.000104164 to 0.000104164
Heightened Def Con from 0.000104164 to 0.000104164
Heightened Def Con from 0.000104164 to 0.000104164
Heightened Def Con from 0.000104164 to 0.000104164
Heightened Def Con from 0.000104164 to 0.000104164
Heightened Def Con from 0.000104164 to 0.000104164
Heightened Def Con from 0.000104164 to 0.000104164
Heightened Def Con from 0.000104164 to 0.000104164
Heightened Def Con from 0.000104164 to 0.000104164
Heightened Def Con from 0.000104164 to 0.000104164
Heightened Def Con from 0.000104164 to 0.000104164
Heightened Def Con from 0.000104164 to 0.000104164
Heightened Def Con from 0.000104164 to 0.000104164
Heightened Def Con from 0.000104164 to 0.000104164
Heightened Def Con from 0.000104164 to 0.000104164
Heightened Def Con from 0.000104164 to 0.000104164
Heightened Def Con from 0.000104164 to 0.000104165
Heightened Def Con from 0.000202628 to 0.00020263
Heightened Def Con from 0.000204161 to 0.000204164
Heightened Def Con from 0.000204164 to 0.000204165
Heightened Def Con from 0.000204166 to 0.000204166
Heightened Def Con from 0.0003025 to 0.000302503
Heightened Def Con from 0.000302626 to 0.000302626
Heightened Def Con from 0.000302628 to 0.000302629
Heightened Def Con from 0.000302629 to 0.000302636
Heightened Def Con from 0.000302665 to 0.000302668
Heightened Def Con from 0.000304161 to 0.000304164
Heightened Def Con from 0.000304164 to 0.000304164
Heightened Def Con from 0.000304164 to 0.000304164
Heightened Def Con from 0.000304164 to 0.000304164
Heightened Def Con from 0.000304164 to 0.000304164
Heightened Def Con from 0.000304164 to 0.000304164
Heightened Def Con from 0.000304164 +to 0.000304164
Heightened Def Con from 0.000304164 to 0.000304164
Heightened Def Con from 0.000304164 to 0.000304164
Heightened Def Con from 0.000304164 to 0.000304164
Heightened Def Con from 0.000304164 to 0.000304164
Heightened Def Con from 0.000304164 to 0.000304164
Heightened Def Con from 0.000304164 to 0.000304164
Heightened Def Con from 0.000304164 to 0.000304164
Heightened Def Con from 0.000304164 to 0.000304164
Heightened Def Con from 0.000304164 to 0.000304164
Heightened Def Con from 0.000304164 +to 0.000304164
Heightened Def Con from 0.000304164 to 0.000304164
Heightened Def Con from 0.000304164 to 0.000304164
Heightened Def Con from 0.000304164 to 0.000304164
Heightened Def Con from 0.000304164 to 0.000304164
Heightened Def Con from 0.000304164 to 0.000304164
Heightened Def Con from 0.000304164 to 0.000304164
Heightened Def Con from 0.000304164 +to 0.000304164
Heightened Def Con from 0.000304164 to 0.000304164
Heightened Def Con from 0.000304164 to 0.000304164
Heightened Def Con from 0.000304164 to 0.000304164
Heightened Def Con from 0.000304164 to 0.000304164
Heightened Def Con from 0.000304164 to 0.000304164
Heightened Def Con from 0.000304164 to 0.000304164
Heightened Def Con from 0.000304164 to 0.000304164
Heightened Def Con from 0.000304164 to 0.000304164
Heightened Def Con from 0.000304164 to 0.000304164
Heightened Def Con from 0.000304164 to 0.000304164
Heightened Def Con from 0.000304164 to 0.000304164
Heightened Def Con from 0.000304164 to 0.000304164
Heightened Def Con from 0.000304164 to 0.000304164
Heightened Def Con from 0.000304164 to 0.000304164
Heightened Def Con from 0.000304164 to 0.000304164
Heightened Def Con from 0.000304164 to 0.000304164
Heightened Def Con from 0.000304164 to 0.000304164
Heightened Def Con from 0.000304164 to 0.000304164
Heightened Def Con from 0.000304164 to 0.000304164
Heightened Def Con from 0.000304164 to 0.000304164
Heightened Def Con from 0.000304164 +to 0.000304164
Heightened Def Con from 0.000304164 to 0.000304164
Heightened Def Con from 0.000304164 to 0.000304164
Heightened Def Con from 0.000304164 +to 0.000304164
Heightened Def Con from 0.000304164 to 0.000304164
Heightened Def Con from 0.000304164 to 0.000304164
Heightened Def Con from 0.000304164 to 0.000304164
Heightened Def Con from 0.000304164 to 0.000304164
Heightened Def Con from 0.000304164 to 0.000304164
Heightened Def Con from 0.000304164 to 0.000304164
Heightened Def Con from 0.000304164 to 0.000304164
Heightened Def Con from 0.000304164 to 0.000304164
Heightened Def Con from 0.000304164 to 0.000304164
Heightened Def Con from 0.000304164 to 0.000304164
Heightened Def Con from 0.000304164 to 0.000304164
Heightened Def Con from 0.000304164 to 0.000304164
Heightened Def Con from 0.000304164 +to 0.000304164
Heightened Def Con from 0.000304164 to 0.000304164
Heightened Def Con from 0.000304164 to 0.000304164
Heightened Def Con from 0.000304164 to 0.000304164
Heightened Def Con from 0.000304164 +to 0.000304164
Heightened Def Con from 0.000304164 to 0.000304164
Heightened Def Con from 0.000304164 to 0.000304164
Heightened Def Con from 0.000304164 to 0.000304164
Heightened Def Con from 0.000304164 +to 0.000304164
Heightened Def Con from 0.000304164 to 0.000304164
Heightened Def Con from 0.000304164 to 0.000304164
Heightened Def Con from 0.000304164 to 0.000304164
Heightened Def Con from 0.000304164 to 0.000304164
Heightened Def Con from 0.000304164 to 0.000304164
Heightened Def Con from 0.000304164 to 0.000304164
Heightened Def Con from 0.000304164 to 0.000304164
Heightened Def Con from 0.000304164 to 0.000304164
Heightened Def Con from 0.000304164 to 0.000304164
Heightened Def Con from 0.000304164 to 0.000304164
Heightened Def Con from 0.000304164 to 0.000304164
Heightened Def Con from 0.000304164 to 0.000304164
Heightened Def Con from 0.000304164 to 0.000304164
Heightened Def Con from 0.000304164 to 0.000304164
Heightened Def Con from 0.000304164 to 0.000304164
Heightened Def Con from 0.000304164 to 0.000304164
Heightened Def Con from 0.000304164 to 0.000304164
Heightened Def Con from 0.000304164 +to 0.000304164
Heightened Def Con from 0.000304164 to 0.000304164
Heightened Def Con from 0.000304164 to 0.000304164
Heightened Def Con from 0.000304164 to 0.000304164
Heightened Def Con from 0.000304164 to 0.000304164
Heightened Def Con from 0.000304164 to 0.000304164
Heightened Def Con from 0.000304164 to 0.000304164
Heightened Def Con from 0.000304164 +to 0.000304164
Heightened Def Con from 0.000304164 to 0.000304164
Heightened Def Con from 0.000304164 to 0.000304164
Heightened Def Con from 0.000304164 to 0.000304164
Heightened Def Con from 0.000304164 to 0.000304164
Heightened Def Con from 0.000304164 to 0.000304164
Heightened Def Con from 0.000304164 to 0.000304164
Heightened Def Con from 0.000304164 to 0.000304164
Heightened Def Con from 0.000304164 to 0.000304164
Heightened Def Con from 0.000304164 to 0.000304164
Heightened Def Con from 0.000304164 to 0.000304164
Heightened Def Con from 0.000304164 to 0.000304164
Heightened Def Con from 0.000304164 to 0.000304164
Heightened Def Con from 0.000304164 to 0.000304164
Heightened Def Con from 0.000304164 to 0.000304164
Heightened Def Con from 0.000304164 to 0.000304164
Heightened Def Con from 0.000304164 to 0.000304164
Heightened Def Con from 0.000304164 to 0.000304164
Heightened Def Con from 0.000304164 to 0.000304164
Heightened Def Con from 0.000304164 to 0.000304164
Heightened Def Con from 0.000304164 +to 0.000304164
Heightened Def Con from 0.000304164 to 0.000304164
Heightened Def Con from 0.000304164 to 0.000304164
Heightened Def Con from 0.000304164 to 0.000304164
Heightened Def Con from 0.000304164 to 0.000304164
Heightened Def Con from 0.000304164 to 0.000304164
Heightened Def Con from 0.000304164 to 0.000304164
Heightened Def Con from 0.000304164 to 0.000304164
Heightened Def Con from 0.000304164 to 0.000304164
Heightened Def Con from 0.000304164 to 0.000304164
Heightened Def Con from 0.000304164 to 0.000304164
Heightened Def Con from 0.000304164 to 0.000304164
Heightened Def Con from 0.000304164 to 0.000304164
Heightened Def Con from 0.000304164 to 0.000304164
Heightened Def Con from 0.000304164 to 0.000304164
Heightened Def Con from 0.000304164 to 0.000304164
Heightened Def Con from 0.000304164 to 0.000304164
Heightened Def Con from 0.000304164 to 0.000304164
Heightened Def Con from 0.000304164 to 0.000304164
Heightened Def Con from 0.000304164 to 0.000304164
Heightened Def Con from 0.000304164 to 0.000304164
Heightened Def Con from 0.000304164 to 0.000304164
Heightened Def Con from 0.000304164 to 0.000304164
Heightened Def Con from 0.000304164 to 0.000304164
Heightened Def Con from 0.000304164 to 0.000304164
Heightened Def Con from 0.000304164 to 0.000304164
Heightened Def Con from 0.000304164 to 0.000304164
Heightened Def Con from 0.000304164 to 0.000304164
Heightened Def Con from 0.000304164 to 0.000304164
Heightened Def Con from 0.000304164 to 0.000304164
Heightened Def Con from 0.000304164 to 0.000304164
Heightened Def Con from 0.000304164 to 0.000304164
Heightened Def Con from 0.000304164 to 0.000304164
Heightened Def Con from 0.000304164 to 0.000304164
Heightened Def Con from 0.000304164 to 0.000304164
Heightened Def Con from 0.000304164 to 0.000304164
Heightened Def Con from 0.000304164 to 0.000304164
Heightened Def Con from 0.000304164 to 0.000304164
Heightened Def Con from 0.000304164 to 0.000304164
Heightened Def Con from 0.000304164 to 0.000304164
Heightened Def Con from 0.000304164 to 0.000304164
Heightened Def Con from 0.000304164 to 0.000304164
Heightened Def Con from 0.000304164 to 0.000304164
Heightened Def Con from 0.000304164 to 0.000304164
Heightened Def Con from 0.000304164 to 0.000304164
Heightened Def Con from 0.000304164 to 0.000304164
Heightened Def Con from 0.000304164 to 0.000304164
Heightened Def Con from 0.000304164 to 0.000304164
Heightened Def Con from 0.000304164 to 0.000304164
Heightened Def Con from 0.000304164 to 0.000304164
Heightened Def Con from 0.000304164 to 0.000304164
Heightened Def Con from 0.000304164 to 0.000304164
Heightened Def Con from 0.000304164 to 0.000304164
Heightened Def Con from 0.000304164 to 0.000304164
Heightened Def Con from 0.000304164 to 0.000304164
Heightened Def Con from 0.000304164 to 0.000304164
Heightened Def Con from 0.000304164 to 0.000304164
Heightened Def Con from 0.000304164 to 0.000304164
Heightened Def Con from 0.000304164 to 0.000304164
Heightened Def Con from 0.000304164 to 0.000304164
Heightened Def Con from 0.000304164 to 0.000304164
Heightened Def Con from 0.000304164 to 0.000304164
Heightened Def Con from 0.000304164 to 0.000304164
Heightened Def Con from 0.000304164 to 0.000304164
Heightened Def Con from 0.000304164 to 0.000304164
Heightened Def Con from 0.000304164 to 0.000304164
Heightened Def Con from 0.000304164 to 0.000304164
Heightened Def Con from 0.000304164 +to 0.000304164
Heightened Def Con from 0.000304164 to 0.000304164
Heightened Def Con from 0.000304164 to 0.000304164
Heightened Def Con from 0.000304164 to 0.000304164
Heightened Def Con from 0.000304164 to 0.000304164
Heightened Def Con from 0.000304164 to 0.000304164
Heightened Def Con from 0.000304164 to 0.000304164
Heightened Def Con from 0.000304164 to 0.000304164
Heightened Def Con from 0.000304164 to 0.000304164
Heightened Def Con from 0.000304164 to 0.000304164
Heightened Def Con from 0.000304164 to 0.000304164
Heightened Def Con from 0.000304164 +to 0.000304164
Heightened Def Con from 0.000304164 to 0.000304164
Heightened Def Con from 0.000304164 to 0.000304164
Heightened Def Con from 0.000304164 +to 0.000304164
Heightened Def Con from 0.000304164 to 0.000304164
Heightened Def Con from 0.000304164 to 0.000304164
Heightened Def Con from 0.000304164 to 0.000304164
Heightened Def Con from 0.000304164 to 0.000304164
Heightened Def Con from 0.000304164 to 0.000304164
Heightened Def Con from 0.000304164 to 0.000304164
Heightened Def Con from 0.000304164 to 0.000304164
Heightened Def Con from 0.000304164 to 0.000304164
Heightened Def Con from 0.000304164 +to 0.000304164
Heightened Def Con from 0.000304164 to 0.000304164
Heightened Def Con from 0.000304164 to 0.000304164
Heightened Def Con from 0.000304164 to 0.000304164
Heightened Def Con from 0.000304164 to 0.000304164
Heightened Def Con from 0.000304164 +to 0.000304164
Heightened Def Con from 0.000304164 to 0.000304164
Heightened Def Con from 0.000304164 to 0.000304164
Heightened Def Con from 0.000304164 to 0.000304164
Heightened Def Con from 0.000304164 to 0.000304164
Heightened Def Con from 0.000304164 to 0.000304164
Heightened Def Con from 0.000304164 to 0.000304164
Heightened Def Con from 0.000304164 to 0.000304164
Heightened Def Con from 0.000304164 to 0.000304164
Heightened Def Con from 0.000304164 to 0.000304164
Heightened Def Con from 0.000304164 to 0.000304164
Heightened Def Con from 0.000304164 to 0.000304164
Heightened Def Con from 0.000304164 to 0.000304164
Heightened Def Con from 0.000304164 to 0.000304164
Heightened Def Con from 0.000304164 to 0.000304164
Heightened Def Con from 0.000304164 to 0.000304164
Heightened Def Con from 0.000304164 to 0.000304164
Heightened Def Con from 0.000304164 to 0.000304164
Heightened Def Con from 0.000304164 to 0.000304164
Heightened Def Con from 0.000304164 to 0.000304164
Heightened Def Con from 0.000304164 to 0.000304164
Heightened Def Con from 0.000304164 to 0.000304164
Heightened Def Con from 0.000304164 to 0.000304164
Heightened Def Con from 0.000304164 to 0.000304164
Heightened Def Con from 0.000304164 to 0.000304164
Heightened Def Con from 0.000304164 to 0.000304164
Heightened Def Con from 0.000304164 to 0.000304164
Heightened Def Con from 0.000304164 to 0.000304164
Heightened Def Con from 0.000304164 to 0.000304164
Heightened Def Con from 0.000304164 to 0.000304164
Heightened Def Con from 0.000304164 to 0.000304164
Heightened Def Con from 0.000304164 to 0.000304164
Heightened Def Con from 0.000304164 +to 0.000304164
Heightened Def Con from 0.000304164 to 0.000304164
Heightened Def Con from 0.000304164 to 0.000304164
Heightened Def Con from 0.000304164 +to 0.000304164
Heightened Def Con from 0.000304164 to 0.000304164
Heightened Def Con from 0.000304164 to 0.000304164
Heightened Def Con from 0.000304164 to 0.000304164
Heightened Def Con from 0.000304164 to 0.000304164
Heightened Def Con from 0.000304164 to 0.000304164
Heightened Def Con from 0.000304164 to 0.000304164
Heightened Def Con from 0.000304164 to 0.000304164
Heightened Def Con from 0.000304164 to 0.000304164
Heightened Def Con from 0.000304164 to 0.000304164
Heightened Def Con from 0.000304164 +to 0.000304164
Heightened Def Con from 0.000304164 to 0.000304164
Heightened Def Con from 0.000304164 to 0.000304164
Heightened Def Con from 0.000304164 to 0.000304164
Heightened Def Con from 0.000304164 to 0.000304164
Heightened Def Con from 0.000304164 to 0.000304164
Heightened Def Con from 0.000304164 to 0.000304164
Heightened Def Con from 0.000304164 to 0.000304164
Heightened Def Con from 0.000304164 to 0.000304164
Heightened Def Con from 0.000304164 to 0.000304164
Heightened Def Con from 0.000304164 to 0.000304164
Heightened Def Con from 0.000304164 +to 0.000304164
Heightened Def Con from 0.000304164 to 0.000304164
Heightened Def Con from 0.000304164 to 0.000304164
Heightened Def Con from 0.000304164 to 0.000304164
Heightened Def Con from 0.000304164 to 0.000304164
Heightened Def Con from 0.000304164 to 0.000304164
Heightened Def Con from 0.000304164 to 0.000304164
Heightened Def Con from 0.000304164 to 0.000304164
Heightened Def Con from 0.000304164 to 0.000304164
Heightened Def Con from 0.000304164 to 0.000304164
Heightened Def Con from 0.000304164 to 0.000304164
Heightened Def Con from 0.000304164 to 0.000304164
Heightened Def Con from 0.000304164 to 0.000304164
Heightened Def Con from 0.000304164 to 0.000304164
Heightened Def Con from 0.000304164 to 0.000304164
Heightened Def Con from 0.000304164 to 0.000304164
Heightened Def Con from 0.000304164 to 0.000304164
Heightened Def Con from 0.000304164 to 0.000304164
Heightened Def Con from 0.000304164 to 0.000304164
Heightened Def Con from 0.000304164 to 0.000304164
Heightened Def Con from 0.000304164 to 0.000304164
Heightened Def Con from 0.000304164 to 0.000304164
Heightened Def Con from 0.000304164 to 0.000304164
Heightened Def Con from 0.000304164 to 0.000304164
Heightened Def Con from 0.000304164 to 0.000304164
Heightened Def Con from 0.000304164 to 0.000304164
Heightened Def Con from 0.000304164 to 0.000304164
Heightened Def Con from 0.000304164 to 0.000304164
Heightened Def Con from 0.000304164 to 0.000304164
Heightened Def Con from 0.000304164 to 0.000304164
Heightened Def Con from 0.000304164 to 0.000304164
Heightened Def Con from 0.000304164 to 0.000304164
Heightened Def Con from 0.000304164 to 0.000304164
Heightened Def Con from 0.000304164 to 0.000304164
Heightened Def Con from 0.000304164 +to 0.000304164
Heightened Def Con from 0.000304164 to 0.000304164
Heightened Def Con from 0.000304164 ++to 0.000304164
Heightened Def Con from 0.000304164 to 0.000304164
Heightened Def Con from 0.000304164 to 0.000304164
Heightened Def Con from 0.000304164 to 0.000304164
Heightened Def Con from 0.000304164 to 0.000304164
Heightened Def Con from 0.000304164 to 0.000304164
Heightened Def Con from 0.000304164 to 0.000304164
Heightened Def Con from 0.000304164 to 0.000304164
Heightened Def Con from 0.000304164 to 0.000304164
Heightened Def Con from 0.000304164 to 0.000304164
Heightened Def Con from 0.000304164 to 0.000304164
Heightened Def Con from 0.000304164 to 0.000304164
Heightened Def Con from 0.000304164 to 0.000304164
Heightened Def Con from 0.000304164 to 0.000304164
Heightened Def Con from 0.000304164 to 0.000304164
Heightened Def Con from 0.000304164 to 0.000304164
Heightened Def Con from 0.000304164 to 0.000304164
Heightened Def Con from 0.000304164 to 0.000304164
Heightened Def Con from 0.000304164 to 0.000304164
Heightened Def Con from 0.000304164 to 0.000304164
Heightened Def Con from 0.000304164 to 0.000304164
Heightened Def Con from 0.000304164 to 0.000304164
Heightened Def Con from 0.000304164 to 0.000304164
Heightened Def Con from 0.000304164 to 0.000304164
Heightened Def Con from 0.000304164 to 0.000304164
Heightened Def Con from 0.000304164 to 0.000304164
Heightened Def Con from 0.000304164 to 0.000304164
Heightened Def Con from 0.000304164 to 0.000304164
Heightened Def Con from 0.000304164 to 0.000304164
Heightened Def Con from 0.000304164 to 0.000304164
Heightened Def Con from 0.000304164 to 0.000304164
Heightened Def Con from 0.000304164 to 0.000304164
Heightened Def Con from 0.000304164 to 0.000304164
Heightened Def Con from 0.000304164 to 0.000304164
Heightened Def Con from 0.000304164 to 0.000304164
Heightened Def Con from 0.000304164 to 0.000304164
Heightened Def Con from 0.000304164 to 0.000304164
Heightened Def Con from 0.000304164 +to 0.000304164
Heightened Def Con from 0.000304164 to 0.000304164
Heightened Def Con from 0.000304164 to 0.000304164
Heightened Def Con from 0.000304164 to 0.000304164
Heightened Def Con from 0.000304164 to 0.000304164
Heightened Def Con from 0.000304164 to 0.000304164
Heightened Def Con from 0.000304164 to 0.000304164
Heightened Def Con from 0.000304164 to 0.000304164
Heightened Def Con from 0.000304164 to 0.000304164
Heightened Def Con from 0.000304164 to 0.000304164
Heightened Def Con from 0.000304164 to 0.000304164
Heightened Def Con from 0.000304164 to 0.000304164
Heightened Def Con from 0.000304164 to 0.000304164
Heightened Def Con from 0.000304164 to 0.000304164
Heightened Def Con from 0.000304164 to 0.000304164
Heightened Def Con from 0.000304164 to 0.000304164
Heightened Def Con from 0.000304164 to 0.000304164
Heightened Def Con from 0.000304164 to 0.000304164
Heightened Def Con from 0.000304164 to 0.000304164
Heightened Def Con from 0.000304164 to 0.000304164
Heightened Def Con from 0.000304164 to 0.000304164
Heightened Def Con from 0.000304164 to 0.000304164
Heightened Def Con from 0.000304164 to 0.000304164
Heightened Def Con from 0.000304164 +to 0.000304164
Heightened Def Con from 0.000304164 to 0.000304164
Heightened Def Con from 0.000304164 to 0.000304164
Heightened Def Con from 0.000304164 to 0.000304164
Heightened Def Con from 0.000304164 to 0.000304164
Heightened Def Con from 0.000304164 to 0.000304164
Heightened Def Con from 0.000304164 to 0.000304164
Heightened Def Con from 0.000304164 to 0.000304164
Heightened Def Con from 0.000304164 to 0.000304164
Heightened Def Con from 0.000304164 to 0.000304164
Heightened Def Con from 0.000304164 to 0.000304164
Heightened Def Con from 0.000304164 to 0.000304164
Heightened Def Con from 0.000304164 to 0.000304164
Heightened Def Con from 0.000304164 to 0.000304164
Heightened Def Con from 0.000304164 to 0.000304164
Heightened Def Con from 0.000304164 to 0.000304164
Heightened Def Con from 0.000304164 to 0.000304164
Heightened Def Con from 0.000304164 to 0.000304164
Heightened Def Con from 0.000304164 to 0.000304164
Heightened Def Con from 0.000304164 to 0.000304164
Heightened Def Con from 0.000304164 to 0.000304164
Heightened Def Con from 0.000304164 to 0.000304164
Heightened Def Con from 0.000304164 to 0.000304164
Heightened Def Con from 0.000304164 to 0.000304164
Heightened Def Con from 0.000304164 to 0.000304164
Heightened Def Con from 0.000304164 to 0.000304164
Heightened Def Con from 0.000304164 to 0.000304164
Heightened Def Con from 0.000304164 to 0.000304164
Heightened Def Con from 0.000304164 to 0.000304164
Heightened Def Con from 0.000304164 to 0.000304164
Heightened Def Con from 0.000304164 to 0.000304164
Heightened Def Con from 0.000304164 to 0.000304164
Heightened Def Con from 0.000304164 +to 0.000304164
Heightened Def Con from 0.000304164 to 0.000304164
Heightened Def Con from 0.000304164 to 0.000304164
Heightened Def Con from 0.000304164 to 0.000304164
Heightened Def Con from 0.000304164 to 0.000304164
Heightened Def Con from 0.000304164 to 0.000304164
Heightened Def Con from 0.000304164 to 0.000304164
Heightened Def Con from 0.000304164 to 0.000304164
Heightened Def Con from 0.000304164 to 0.000304164
Heightened Def Con from 0.000304164 to 0.000304164
Heightened Def Con from 0.000304164 to 0.000304164
Heightened Def Con from 0.000304164 to 0.000304164
Heightened Def Con from 0.000304164 to 0.000304164
Heightened Def Con from 0.000304164 to 0.000304164
Heightened Def Con from 0.000304164 +to 0.000304164
Heightened Def Con from 0.000304164 to 0.000304164
Heightened Def Con from 0.000304164 to 0.000304164
Heightened Def Con from 0.000304164 to 0.000304164
Heightened Def Con from 0.000304164 to 0.000304164
Heightened Def Con from 0.000304164 to 0.000304164
Heightened Def Con from 0.000304164 to 0.000304164
Heightened Def Con from 0.000304164 to 0.000304164
Heightened Def Con from 0.000304164 to 0.000304164
Heightened Def Con from 0.000304164 +to 0.000304164
Heightened Def Con from 0.000304164 +to 0.000304164
Heightened Def Con from 0.000304164 to 0.000304164
Heightened Def Con from 0.000304164 to 0.000304164
Heightened Def Con from 0.000304164 to 0.000304164
Heightened Def Con from 0.000304164 to 0.000304164
Heightened Def Con from 0.000304164 to 0.000304164
Heightened Def Con from 0.000304164 to 0.000304164
Heightened Def Con from 0.000304164 to 0.000304164
Heightened Def Con from 0.000304164 to 0.000304164
Heightened Def Con from 0.000304164 to 0.000304164
Heightened Def Con from 0.000304164 to 0.000304164
Heightened Def Con from 0.000304164 to 0.000304164
Heightened Def Con from 0.000304164 to 0.000304164
Heightened Def Con from 0.000304164 to 0.000304164
Heightened Def Con from 0.000304164 to 0.000304164
Heightened Def Con from 0.000304164 +to 0.000304164
Heightened Def Con from 0.000304164 +to 0.000304164
Heightened Def Con from 0.000304164 to 0.000304164
Heightened Def Con from 0.000304164 to 0.000304164
Heightened Def Con from 0.000304164 to 0.000304164
Heightened Def Con from 0.000304164 to 0.000304164
Heightened Def Con from 0.000304164 to 0.000304164
Heightened Def Con from 0.000304164 to 0.000304164
Heightened Def Con from 0.000304164 to 0.000304164
Heightened Def Con from 0.000304164 to 0.000304164
Heightened Def Con from 0.000304164 to 0.000304164
Heightened Def Con from 0.000304164 to 0.000304164
Heightened Def Con from 0.000304164 to 0.000304164
Heightened Def Con from 0.000304164 to 0.000304164
Heightened Def Con from 0.000304164 to 0.000304164
Heightened Def Con from 0.000304164 to 0.000304164
Heightened Def Con from 0.000304164 to 0.000304164
Heightened Def Con from 0.000304164 to 0.000304164
Heightened Def Con from 0.000304164 to 0.000304164
Heightened Def Con from 0.000304164 to 0.000304164
Heightened Def Con from 0.000304164 +to 0.000304164
Heightened Def Con from 0.000304164 to 0.000304164
Heightened Def Con from 0.000304164 ++to 0.000304164
Heightened Def Con from 0.000304164 to 0.000304164
Heightened Def Con from 0.000304164 to 0.000304164
Heightened Def Con from 0.000304164 +to 0.000304164
Heightened Def Con from 0.000304164 +to 0.000304164
Heightened Def Con from 0.000304164 to 0.000304164
Heightened Def Con from 0.000304164 to 0.000304164
Heightened Def Con from 0.000304164 +to 0.000304164
Heightened Def Con from 0.000304164 to 0.000304164
Heightened Def Con from 0.000304164 to 0.000304164
Heightened Def Con from 0.000304164 to 0.000304164
Heightened Def Con from 0.000304164 to 0.000304164
Heightened Def Con from 0.000304164 to 0.000304164
Heightened Def Con from 0.000304164 to 0.000304164
Heightened Def Con from 0.000304164 to 0.000304164
Heightened Def Con from 0.000304164 to 0.000304164
Heightened Def Con from 0.000304164 to 0.000304164
Heightened Def Con from 0.000304164 to 0.000304164
Heightened Def Con from 0.000304164 to 0.000304164
Heightened Def Con from 0.000304164 to 0.000304164
Heightened Def Con from 0.000304164 +to 0.000304164
Heightened Def Con from 0.000304164 +to 0.000304164
Heightened Def Con from 0.000304164 to 0.000304164
Heightened Def Con from 0.000304164 to 0.000304164
Heightened Def Con from 0.000304164 to 0.000304164
Heightened Def Con from 0.000304164 to 0.000304164
Heightened Def Con from 0.000304164 to 0.000304164
Heightened Def Con from 0.000304164 to 0.000304164
Heightened Def Con from 0.000304164 to 0.000304164
Heightened Def Con from 0.000304164 to 0.000304164
Heightened Def Con from 0.000304164 to 0.000304164
Heightened Def Con from 0.000304164 to 0.000304164
Heightened Def Con from 0.000304164 to 0.000304164
Heightened Def Con from 0.000304164 to 0.000304164
Heightened Def Con from 0.000304164 +to 0.000304164
Heightened Def Con from 0.000304164 to 0.000304164
Heightened Def Con from 0.000304164 to 0.000304164
Heightened Def Con from 0.000304164 to 0.000304164
Heightened Def Con from 0.000304164 to 0.000304164
Heightened Def Con from 0.000304164 to 0.000304164
Heightened Def Con from 0.000304164 to 0.000304164
Heightened Def Con from 0.000304164 to 0.000304164
Heightened Def Con from 0.000304164 to 0.000304164
Heightened Def Con from 0.000304164 to 0.000304164
Heightened Def Con from 0.000304164 to 0.000304164
Heightened Def Con from 0.000304164 to 0.000304164
Heightened Def Con from 0.000304164 to 0.000304164
Heightened Def Con from 0.000304164 to 0.000304164
Heightened Def Con from 0.000304164 to 0.000304164
Heightened Def Con from 0.000304164 +to 0.000304164
Heightened Def Con from 0.000304164 to 0.000304164
Heightened Def Con from 0.000304164 to 0.000304164
Heightened Def Con from 0.000304164 to 0.000304164
Heightened Def Con from 0.000304164 to 0.000304164
Heightened Def Con from 0.000304164 to 0.000304164
Heightened Def Con from 0.000304164 to 0.000304164
Heightened Def Con from 0.000304164 to 0.000304164
Heightened Def Con from 0.000304164 to 0.000304164
Heightened Def Con from 0.000304164 to 0.000304164
Heightened Def Con from 0.000304164 to 0.000304164
Heightened Def Con from 0.000304164 to 0.000304164
Heightened Def Con from 0.000304164 to 0.000304164
Heightened Def Con from 0.000304164 to 0.000304164
Heightened Def Con from 0.000304164 to 0.000304164
Heightened Def Con from 0.000304164 to 0.000304164
Heightened Def Con from 0.000304164 to 0.000304164
Heightened Def Con from 0.000304164 to 0.000304164
Heightened Def Con from 0.000304164 to 0.000304164
Heightened Def Con from 0.000304164 to 0.000304164
Heightened Def Con from 0.000304164 to 0.000304164
Heightened Def Con from 0.000304164 to 0.000304164
Heightened Def Con from 0.000304164 to 0.000304164
Heightened Def Con from 0.000304164 to 0.000304164
Heightened Def Con from 0.000304164 to 0.000304164
Heightened Def Con from 0.000304164 to 0.000304164
Heightened Def Con from 0.000304164 +to 0.000304164
Heightened Def Con from 0.000304164 to 0.000304164
Heightened Def Con from 0.000304164 to 0.000304164
Heightened Def Con from 0.000304164 +to 0.000304164
Heightened Def Con from 0.000304164 to 0.000304164
Heightened Def Con from 0.000304164 to 0.000304164
Heightened Def Con from 0.000304164 to 0.000304164
Heightened Def Con from 0.000304164 to 0.000304164
Heightened Def Con from 0.000304164 to 0.000304164
Heightened Def Con from 0.000304164 to 0.000304164
Heightened Def Con from 0.000304164 +to 0.000304164
Heightened Def Con from 0.000304164 +to 0.000304164
Heightened Def Con from 0.000304164 to 0.000304164
Heightened Def Con from 0.000304164 to 0.000304164
Heightened Def Con from 0.000304164 to 0.000304164
Heightened Def Con from 0.000304164 to 0.000304164
Heightened Def Con from 0.000304164 to 0.000304164
Heightened Def Con from 0.000304164 to 0.000304164
Heightened Def Con from 0.000304164 to 0.000304164
Heightened Def Con from 0.000304164 to 0.000304164
Heightened Def Con from 0.000304164 to 0.000304164
Heightened Def Con from 0.000304164 to 0.000304164
Heightened Def Con from 0.000304164 to 0.000304164
Heightened Def Con from 0.000304164 to 0.000304164
Heightened Def Con from 0.000304164 to 0.000304164
Heightened Def Con from 0.000304164 to 0.000304164
Heightened Def Con from 0.000304164 to 0.000304164
Heightened Def Con from 0.000304164 to 0.000304164
Heightened Def Con from 0.000304164 to 0.000304164
Heightened Def Con from 0.000304164 to 0.000304164
Heightened Def Con from 0.000304164 to 0.000304164
Heightened Def Con from 0.000304164 to 0.000304164
Heightened Def Con from 0.000304164 to 0.000304164
Heightened Def Con from 0.000304164 to 0.000304164
Heightened Def Con from 0.000304164 to 0.000304164
Heightened Def Con from 0.000304164 to 0.000304164
Heightened Def Con from 0.000304164 to 0.000304164
Heightened Def Con from 0.000304164 to 0.000304164
Heightened Def Con from 0.000304164 to 0.000304164
Heightened Def Con from 0.000304164 to 0.000304164
Heightened Def Con from 0.000304164 to 0.000304164
Heightened Def Con from 0.000304164 to 0.000304164
Heightened Def Con from 0.000304164 +to 0.000304164
Heightened Def Con from 0.000304164 +to 0.000304164
Heightened Def Con from 0.000304164 to 0.000304164
Heightened Def Con from 0.000304164 to 0.000304164
Heightened Def Con from 0.000304164 to 0.000304164
Heightened Def Con from 0.000304164 to 0.000304164
Heightened Def Con from 0.000304164 to 0.000304164
Heightened Def Con from 0.000304164 to 0.000304164
Heightened Def Con from 0.000304164 to 0.000304164
Heightened Def Con from 0.000304164 to 0.000304164
Heightened Def Con from 0.000304164 +to 0.000304164
Heightened Def Con from 0.000304164 to 0.000304164
Heightened Def Con from 0.000304164 to 0.000304164
Heightened Def Con from 0.000304164 to 0.000304164
Heightened Def Con from 0.000304164 to 0.000304164
Heightened Def Con from 0.000304164 to 0.000304164
Heightened Def Con from 0.000304164 to 0.000304164
Heightened Def Con from 0.000304164 to 0.000304164
Heightened Def Con from 0.000304164 to 0.000304164
Heightened Def Con from 0.000304164 to 0.000304164
Heightened Def Con from 0.000304164 to 0.000304164
Heightened Def Con from 0.000304164 to 0.000304164
Heightened Def Con from 0.000304164 to 0.000304164
Heightened Def Con from 0.000304164 to 0.000304164
Heightened Def Con from 0.000304164 to 0.000304164
Heightened Def Con from 0.000304164 to 0.000304164
Heightened Def Con from 0.000304164 to 0.000304164
Heightened Def Con from 0.000304164 +to 0.000304164
Heightened Def Con from 0.000304164 to 0.000304164
Heightened Def Con from 0.000304164 to 0.000304164
Heightened Def Con from 0.000304164 to 0.000304164
Heightened Def Con from 0.000304164 to 0.000304164
Heightened Def Con from 0.000304164 to 0.000304164
Heightened Def Con from 0.000304164 to 0.000304164
Heightened Def Con from 0.000304164 to 0.000304164
Heightened Def Con from 0.000304164 to 0.000304164
Heightened Def Con from 0.000304164 to 0.000304164
Heightened Def Con from 0.000304164 to 0.000304164
Heightened Def Con from 0.000304164 to 0.000304164
Heightened Def Con from 0.000304164 to 0.000304164
Heightened Def Con from 0.000304164 to 0.000304164
Heightened Def Con from 0.000304164 ++to 0.000304164
Heightened Def Con from 0.000304164 to 0.000304164
Heightened Def Con from 0.000304164 to 0.000304164
Heightened Def Con from 0.000304164 to 0.000304164
Heightened Def Con from 0.000304164 +to 0.000304164
Heightened Def Con from 0.000304164 to 0.000304164
Heightened Def Con from 0.000304164 to 0.000304164
Heightened Def Con from 0.000304164 to 0.000304164
Heightened Def Con from 0.000304164 to 0.000304164
Heightened Def Con from 0.000304164 to 0.000304164
Heightened Def Con from 0.000304164 to 0.000304164
Heightened Def Con from 0.000304164 +to 0.000304164
Heightened Def Con from 0.000304164 to 0.000304164
Heightened Def Con from 0.000304164 to 0.000304164
Heightened Def Con from 0.000304164 to 0.000304164
Heightened Def Con from 0.000304164 to 0.000304164
Heightened Def Con from 0.000304164 to 0.000304164
Heightened Def Con from 0.000304164 to 0.000304164
Heightened Def Con from 0.000304164 to 0.000304164
Heightened Def Con from 0.000304164 to 0.000304164
Heightened Def Con from 0.000304164 to 0.000304164
Heightened Def Con from 0.000304164 to 0.000304164
Heightened Def Con from 0.000304164 to 0.000304164
Heightened Def Con from 0.000304164 to 0.000304164
Heightened Def Con from 0.000304164 to 0.000304164
Heightened Def Con from 0.000304164 to 0.000304164
Heightened Def Con from 0.000304164 to 0.000304164
Heightened Def Con from 0.000304164 to 0.000304164
Heightened Def Con from 0.000304164 to 0.000304164
Heightened Def Con from 0.000304164 to 0.000304164
Heightened Def Con from 0.000304164 to 0.000304164
Heightened Def Con from 0.000304164 to 0.000304164
Heightened Def Con from 0.000304164 to 0.000304164
Heightened Def Con from 0.000304164 to 0.000304164
Heightened Def Con from 0.000304164 +to 0.000304164
Heightened Def Con from 0.000304164 to 0.000304164
Heightened Def Con from 0.000304164 to 0.000304164
Heightened Def Con from 0.000304164 to 0.000304164
Heightened Def Con from 0.000304164 to 0.000304164
Heightened Def Con from 0.000304164 to 0.000304164
Heightened Def Con from 0.000304164 +to 0.000304164
Heightened Def Con from 0.000304164 to 0.000304164
Heightened Def Con from 0.000304164 to 0.000304164
Heightened Def Con from 0.000304164 to 0.000304164
Heightened Def Con from 0.000304164 to 0.000304164
Heightened Def Con from 0.000304164 to 0.000304164
Heightened Def Con from 0.000304164 to 0.000304164
Heightened Def Con from 0.000304164 to 0.000304164
Heightened Def Con from 0.000304164 to 0.000304164
Heightened Def Con from 0.000304164 to 0.000304164
Heightened Def Con from 0.000304164 to 0.000304164
Heightened Def Con from 0.000304164 to 0.000304164
Heightened Def Con from 0.000304164 to 0.000304164
Heightened Def Con from 0.000304164 to 0.000304164
Heightened Def Con from 0.000304164 to 0.000304164
Heightened Def Con from 0.000304164 +to 0.000304164
Heightened Def Con from 0.000304164 to 0.000304164
Heightened Def Con from 0.000304164 to 0.000304164
Heightened Def Con from 0.000304164 to 0.000304164
Heightened Def Con from 0.000304164 to 0.000304164
Heightened Def Con from 0.000304164 to 0.000304164
Heightened Def Con from 0.000304164 to 0.000304164
Heightened Def Con from 0.000304164 to 0.000304164
Heightened Def Con from 0.000304164 to 0.000304164
Heightened Def Con from 0.000304164 to 0.000304164
Heightened Def Con from 0.000304164 to 0.000304164
Heightened Def Con from 0.000304164 to 0.000304164
Heightened Def Con from 0.000304164 to 0.000304164
Heightened Def Con from 0.000304164 to 0.000304164
Heightened Def Con from 0.000304164 to 0.000304164
Heightened Def Con from 0.000304164 to 0.000304164
Heightened Def Con from 0.000304164 to 0.000304164
Heightened Def Con from 0.000304164 to 0.000304165
Heightened Def Con from 0.000402629 to 0.000402629
Heightened Def Con from 0.000402629 to 0.000402629
Heightened Def Con from 0.000402629 to 0.000402629
Heightened Def Con from 0.000402629 to 0.000402629
Heightened Def Con from 0.000402629 to 0.000402629
Heightened Def Con from 0.000402629 to 0.000402629
Heightened Def Con from 0.000402629 to 0.000402629
Heightened Def Con from 0.000402629 to 0.000402629
Heightened Def Con from 0.000402629 to 0.000402629
Heightened Def Con from 0.000402629 to 0.000402629
Heightened Def Con from 0.00040263 to 0.000402632
Heightened Def Con from 0.000404161 to 0.000404164
Heightened Def Con from 0.000404164 to 0.000404166
Heightened Def Con from 0.000404166 to 0.000404166
Heightened Def Con from 0.000502614 to 0.000502614
Heightened Def Con from 0.000502615 to 0.000502616
Heightened Def Con from 0.000502616 to 0.000502624
Heightened Def Con from 0.00050408 to 0.000504083
Heightened Def Con from 0.0005041 to 0.000504103
Heightened Def Con from 0.000504152 to 0.000504155
Heightened Def Con from 0.000504157 to 0.000504159
Heightened Def Con from 0.000504159 to 0.000504159
Heightened Def Con from 0.000504159 to 0.000504159
Heightened Def Con from 0.000504159 +to 0.000504159
Heightened Def Con from 0.000504159 to 0.000504159
Heightened Def Con from 0.000504159 to 0.000504159
Heightened Def Con from 0.000504159 to 0.000504159
Heightened Def Con from 0.000504159 to 0.000504159
Heightened Def Con from 0.000504159 to 0.000504159
Heightened Def Con from 0.000504159 to 0.000504159
Heightened Def Con from 0.000504159 to 0.000504159
Heightened Def Con from 0.000504159 to 0.000504159
Heightened Def Con from 0.000504159 to 0.000504159
Heightened Def Con from 0.000504159 to 0.000504159
Heightened Def Con from 0.000504159 to 0.000504159
Heightened Def Con from 0.000504159 to 0.000504159
Heightened Def Con from 0.000504159 to 0.000504159
Heightened Def Con from 0.000504159 to 0.000504159
Heightened Def Con from 0.000504159 to 0.000504159
Heightened Def Con from 0.000504159 to 0.000504159
Heightened Def Con from 0.000504159 to 0.000504159
Heightened Def Con from 0.000504159 to 0.000504159
Heightened Def Con from 0.000504159 to 0.000504159
Heightened Def Con from 0.000504159 to 0.000504159
Heightened Def Con from 0.000504159 to 0.000504159
Heightened Def Con from 0.000504159 to 0.000504159
Heightened Def Con from 0.000504159 to 0.000504159
Heightened Def Con from 0.000504159 to 0.000504159
Heightened Def Con from 0.000504159 +to 0.000504159
Heightened Def Con from 0.000504159 to 0.000504159
Heightened Def Con from 0.000504159 to 0.000504159
Heightened Def Con from 0.000504159 to 0.000504159
Heightened Def Con from 0.000504159 to 0.000504159
Heightened Def Con from 0.000504159 to 0.000504159
Heightened Def Con from 0.000504159 to 0.000504159
Heightened Def Con from 0.000504159 to 0.000504159
Heightened Def Con from 0.000504159 to 0.000504159
Heightened Def Con from 0.000504159 to 0.000504159
Heightened Def Con from 0.000504159 to 0.000504159
Heightened Def Con from 0.000504159 to 0.000504159
Heightened Def Con from 0.000504159 to 0.000504159
Heightened Def Con from 0.000504159 to 0.000504159
Heightened Def Con from 0.000504159 to 0.000504159
Heightened Def Con from 0.000504159 to 0.000504159
Heightened Def Con from 0.000504159 to 0.000504159
Heightened Def Con from 0.000504159 to 0.000504159
Heightened Def Con from 0.000504159 to 0.000504159
Heightened Def Con from 0.000504159 to 0.000504159
Heightened Def Con from 0.000504159 to 0.000504159
Heightened Def Con from 0.000504159 to 0.000504159
Heightened Def Con from 0.000504159 to 0.000504159
Heightened Def Con from 0.000504159 to 0.000504159
Heightened Def Con from 0.000504159 +to 0.000504159
Heightened Def Con from 0.000504159 to 0.000504159
Heightened Def Con from 0.000504159 to 0.000504159
Heightened Def Con from 0.000504159 to 0.000504159
Heightened Def Con from 0.000504159 to 0.000504159
Heightened Def Con from 0.000504159 to 0.000504159
Heightened Def Con from 0.000504159 to 0.000504159
Heightened Def Con from 0.000504159 to 0.000504159
Heightened Def Con from 0.000504159 to 0.000504159
Heightened Def Con from 0.000504159 to 0.000504159
Heightened Def Con from 0.000504159 to 0.000504159
Heightened Def Con from 0.000504159 to 0.000504159
Heightened Def Con from 0.000504159 to 0.000504159
Heightened Def Con from 0.000504159 to 0.000504159
Heightened Def Con from 0.000504159 to 0.000504159
Heightened Def Con from 0.000504159 to 0.000504159
Heightened Def Con from 0.000504159 to 0.000504159
Heightened Def Con from 0.000504159 to 0.000504159
Heightened Def Con from 0.000504159 to 0.000504159
Heightened Def Con from 0.000504159 to 0.000504159
Heightened Def Con from 0.000504159 to 0.000504159
Heightened Def Con from 0.000504159 to 0.000504159
Heightened Def Con from 0.000504159 to 0.000504159
Heightened Def Con from 0.000504159 to 0.000504159
Heightened Def Con from 0.000504159 to 0.000504159
Heightened Def Con from 0.000504159 to 0.000504159
Heightened Def Con from 0.000504159 to 0.000504159
Heightened Def Con from 0.000504159 to 0.000504159
Heightened Def Con from 0.000504159 to 0.000504159
Heightened Def Con from 0.000504159 to 0.000504159
Heightened Def Con from 0.000504159 to 0.000504159
Heightened Def Con from 0.000504159 +to 0.000504159
Heightened Def Con from 0.000504159 +to 0.000504159
Heightened Def Con from 0.000504159 to 0.000504159
Heightened Def Con from 0.000504159 to 0.000504159
Heightened Def Con from 0.000504159 to 0.000504159
Heightened Def Con from 0.000504159 to 0.000504159
Heightened Def Con from 0.000504159 to 0.000504159
Heightened Def Con from 0.000504159 to 0.000504159
Heightened Def Con from 0.000504159 to 0.000504159
Heightened Def Con from 0.000504159 to 0.000504159
Heightened Def Con from 0.000504159 to 0.000504159
Heightened Def Con from 0.000504159 to 0.000504159
Heightened Def Con from 0.000504159 to 0.000504159
Heightened Def Con from 0.000504159 to 0.000504159
Heightened Def Con from 0.000504159 to 0.000504159
Heightened Def Con from 0.000504159 to 0.000504159
Heightened Def Con from 0.000504159 to 0.000504159
Heightened Def Con from 0.000504159 to 0.000504159
Heightened Def Con from 0.000504159 to 0.000504159
Heightened Def Con from 0.000504159 to 0.000504159
Heightened Def Con from 0.000504159 to 0.000504159
Heightened Def Con from 0.000504159 to 0.000504159
Heightened Def Con from 0.000504159 +to 0.000504159
Heightened Def Con from 0.000504159 to 0.000504159
Heightened Def Con from 0.000504159 to 0.000504159
Heightened Def Con from 0.000504159 to 0.000504159
Heightened Def Con from 0.000504159 to 0.000504159
Heightened Def Con from 0.000504159 to 0.000504159
Heightened Def Con from 0.000504159 to 0.000504159
Heightened Def Con from 0.000504159 to 0.000504159
Heightened Def Con from 0.000504159 to 0.000504159
Heightened Def Con from 0.000504159 to 0.000504159
Heightened Def Con from 0.000504159 to 0.000504159
Heightened Def Con from 0.000504159 to 0.000504159
Heightened Def Con from 0.000504159 to 0.000504159
Heightened Def Con from 0.000504159 to 0.000504159
Heightened Def Con from 0.000504159 to 0.000504159
Heightened Def Con from 0.000504159 to 0.000504159
Heightened Def Con from 0.000504159 to 0.000504159
Heightened Def Con from 0.000504159 to 0.000504159
Heightened Def Con from 0.000504159 to 0.000504159
Heightened Def Con from 0.000504159 to 0.000504159
Heightened Def Con from 0.000504159 to 0.000504159
Heightened Def Con from 0.000504159 to 0.000504159
Heightened Def Con from 0.000504159 +to 0.000504159
Heightened Def Con from 0.000504159 ++to 0.000504159
Heightened Def Con from 0.000504159 to 0.000504159
Heightened Def Con from 0.000504159 to 0.000504159
Heightened Def Con from 0.000504159 to 0.000504159
Heightened Def Con from 0.000504159 to 0.000504159
Heightened Def Con from 0.000504159 to 0.000504159
Heightened Def Con from 0.000504159 to 0.000504159
Heightened Def Con from 0.000504159 to 0.000504159
Heightened Def Con from 0.000504159 to 0.000504159
Heightened Def Con from 0.000504159 to 0.000504159
Heightened Def Con from 0.000504159 to 0.000504159
Heightened Def Con from 0.000504159 to 0.000504159
Heightened Def Con from 0.000504159 to 0.000504159
Heightened Def Con from 0.000504159 to 0.000504159
Heightened Def Con from 0.000504159 to 0.000504159
Heightened Def Con from 0.000504159 to 0.000504159
Heightened Def Con from 0.000504159 to 0.000504159
Heightened Def Con from 0.000504159 to 0.000504159
Heightened Def Con from 0.000504159 to 0.000504159
Heightened Def Con from 0.000504159 to 0.000504159
Heightened Def Con from 0.000504159 to 0.000504159
Heightened Def Con from 0.000504159 to 0.000504159
Heightened Def Con from 0.000504159 to 0.000504159
Heightened Def Con from 0.000504159 to 0.000504159
Heightened Def Con from 0.000504159 to 0.000504159
Heightened Def Con from 0.000504159 to 0.000504159
Heightened Def Con from 0.000504159 to 0.000504159
Heightened Def Con from 0.000504159 +to 0.000504159
Heightened Def Con from 0.000504159 to 0.000504159
Heightened Def Con from 0.000504159 to 0.000504159
Heightened Def Con from 0.000504159 to 0.000504159
Heightened Def Con from 0.000504159 +to 0.000504159
Heightened Def Con from 0.000504159 +to 0.000504159
Heightened Def Con from 0.000504159 to 0.000504159
Heightened Def Con from 0.000504159 to 0.000504159
Heightened Def Con from 0.000504159 to 0.000504159
Heightened Def Con from 0.000504159 to 0.000504159
Heightened Def Con from 0.000504159 to 0.000504159
Heightened Def Con from 0.000504159 to 0.000504159
Heightened Def Con from 0.000504159 to 0.000504159
Heightened Def Con from 0.000504159 to 0.000504159
Heightened Def Con from 0.000504159 to 0.000504159
Heightened Def Con from 0.000504159 to 0.000504159
Heightened Def Con from 0.000504159 to 0.000504159
Heightened Def Con from 0.000504159 to 0.000504159
Heightened Def Con from 0.000504159 to 0.000504159
Heightened Def Con from 0.000504159 to 0.000504159
Heightened Def Con from 0.000504159 to 0.000504159
Heightened Def Con from 0.000504159 to 0.000504159
Heightened Def Con from 0.000504159 +to 0.000504159
Heightened Def Con from 0.000504159 to 0.000504159
Heightened Def Con from 0.000504159 +to 0.000504159
Heightened Def Con from 0.000504159 to 0.000504159
Heightened Def Con from 0.000504159 to 0.000504159
Heightened Def Con from 0.000504159 to 0.000504159
Heightened Def Con from 0.000504159 to 0.000504159
Heightened Def Con from 0.000504159 to 0.000504159
Heightened Def Con from 0.000504159 to 0.000504159
Heightened Def Con from 0.000504159 to 0.000504159
Heightened Def Con from 0.000504159 to 0.000504159
Heightened Def Con from 0.000504159 to 0.000504159
Heightened Def Con from 0.000504159 to 0.000504159
Heightened Def Con from 0.000504159 to 0.000504159
Heightened Def Con from 0.000504159 to 0.000504159
Heightened Def Con from 0.000504159 to 0.000504159
Heightened Def Con from 0.000504159 to 0.000504159
Heightened Def Con from 0.000504159 to 0.000504159
Heightened Def Con from 0.000504159 to 0.000504159
Heightened Def Con from 0.000504159 to 0.000504159
Heightened Def Con from 0.000504159 to 0.000504159
Heightened Def Con from 0.000504159 to 0.000504159
Heightened Def Con from 0.000504159 to 0.000504159
Heightened Def Con from 0.000504159 to 0.000504159
Heightened Def Con from 0.000504159 to 0.000504159
Heightened Def Con from 0.000504159 to 0.000504159
Heightened Def Con from 0.000504159 to 0.000504159
Heightened Def Con from 0.000504159 to 0.000504159
Heightened Def Con from 0.000504159 to 0.000504159
Heightened Def Con from 0.000504159 to 0.000504159
Heightened Def Con from 0.000504159 to 0.000504159
Heightened Def Con from 0.000504159 to 0.000504159
Heightened Def Con from 0.000504159 to 0.000504159
Heightened Def Con from 0.000504159 to 0.000504159
Heightened Def Con from 0.000504159 to 0.000504159
Heightened Def Con from 0.000504159 to 0.000504159
Heightened Def Con from 0.000504159 to 0.000504159
Heightened Def Con from 0.000504159 to 0.000504159
Heightened Def Con from 0.000504159 +to 0.000504159
Heightened Def Con from 0.000504159 to 0.000504159
Heightened Def Con from 0.000504159 to 0.000504159
Heightened Def Con from 0.000504159 to 0.000504159
Heightened Def Con from 0.000504159 to 0.000504159
Heightened Def Con from 0.000504159 to 0.000504159
Heightened Def Con from 0.000504159 to 0.000504159
Heightened Def Con from 0.000504159 to 0.000504159
Heightened Def Con from 0.000504159 +to 0.000504159
Heightened Def Con from 0.000504159 to 0.000504159
Heightened Def Con from 0.000504159 to 0.000504159
Heightened Def Con from 0.000504159 to 0.000504159
Heightened Def Con from 0.000504159 to 0.000504159
Heightened Def Con from 0.000504159 to 0.000504159
Heightened Def Con from 0.000504159 to 0.000504159
Heightened Def Con from 0.000504159 to 0.000504159
Heightened Def Con from 0.000504159 to 0.000504159
Heightened Def Con from 0.000504159 to 0.000504159
Heightened Def Con from 0.000504159 to 0.000504159
Heightened Def Con from 0.000504159 to 0.000504159
Heightened Def Con from 0.000504159 to 0.000504159
Heightened Def Con from 0.000504159 to 0.000504159
Heightened Def Con from 0.000504159 to 0.000504159
Heightened Def Con from 0.000504159 to 0.000504159
Heightened Def Con from 0.000504159 +to 0.000504159
Heightened Def Con from 0.000504159 to 0.000504159
Heightened Def Con from 0.000504159 to 0.000504159
Heightened Def Con from 0.000504159 to 0.000504159
Heightened Def Con from 0.000504159 to 0.000504159
Heightened Def Con from 0.000504159 to 0.000504159
Heightened Def Con from 0.000504159 to 0.000504159
Heightened Def Con from 0.000504159 to 0.000504159
Heightened Def Con from 0.000504159 to 0.000504159
Heightened Def Con from 0.000504159 to 0.000504159
Heightened Def Con from 0.000504159 to 0.000504159
Heightened Def Con from 0.000504159 to 0.000504159
Heightened Def Con from 0.000504159 to 0.000504159
Heightened Def Con from 0.000504159 to 0.000504159
Heightened Def Con from 0.000504159 ++to 0.000504159
Heightened Def Con from 0.000504159 to 0.000504159
Heightened Def Con from 0.000504159 to 0.000504159
Heightened Def Con from 0.000504159 to 0.000504159
Heightened Def Con from 0.000504159 +to 0.000504159
Heightened Def Con from 0.000504159 +to 0.000504159
Heightened Def Con from 0.000504159 to 0.000504159
Heightened Def Con from 0.000504159 to 0.000504159
Heightened Def Con from 0.000504159 to 0.000504159
Heightened Def Con from 0.000504159 +to 0.000504159
Heightened Def Con from 0.000504159 to 0.000504159
Heightened Def Con from 0.000504159 to 0.000504159
Heightened Def Con from 0.000504159 to 0.000504159
Heightened Def Con from 0.000504159 to 0.000504159
Heightened Def Con from 0.000504159 to 0.000504159
Heightened Def Con from 0.000504159 to 0.000504159
Heightened Def Con from 0.000504159 to 0.000504159
Heightened Def Con from 0.000504159 to 0.000504159
Heightened Def Con from 0.000504159 +to 0.000504159
Heightened Def Con from 0.000504159 to 0.000504159
Heightened Def Con from 0.000504159 to 0.000504159
Heightened Def Con from 0.000504159 to 0.000504159
Heightened Def Con from 0.000504159 to 0.000504159
Heightened Def Con from 0.000504159 to 0.000504159
Heightened Def Con from 0.000504159 to 0.000504159
Heightened Def Con from 0.000504159 to 0.000504159
Heightened Def Con from 0.000504159 to 0.000504159
Heightened Def Con from 0.000504159 to 0.000504159
Heightened Def Con from 0.000504159 to 0.000504159
Heightened Def Con from 0.000504159 to 0.000504159
Heightened Def Con from 0.000504159 to 0.000504159
Heightened Def Con from 0.000504159 +to 0.000504159
Heightened Def Con from 0.000504159 to 0.000504159
Heightened Def Con from 0.000504159 to 0.000504159
Heightened Def Con from 0.000504159 to 0.000504159
Heightened Def Con from 0.000504159 to 0.000504159
Heightened Def Con from 0.000504159 to 0.000504159
Heightened Def Con from 0.000504159 to 0.000504159
Heightened Def Con from 0.000504159 to 0.000504159
Heightened Def Con from 0.000504159 to 0.000504159
Heightened Def Con from 0.000504159 to 0.000504159
Heightened Def Con from 0.000504159 to 0.000504159
Heightened Def Con from 0.000504159 to 0.000504159
Heightened Def Con from 0.000504159 to 0.000504159
Heightened Def Con from 0.000504159 to 0.000504159
Heightened Def Con from 0.000504159 to 0.000504159
Heightened Def Con from 0.000504159 to 0.000504159
Heightened Def Con from 0.000504159 to 0.000504159
Heightened Def Con from 0.000504159 to 0.000504159
Heightened Def Con from 0.000504159 to 0.000504159
Heightened Def Con from 0.000504159 to 0.000504159
Heightened Def Con from 0.000504159 to 0.000504159
Heightened Def Con from 0.000504159 to 0.000504159
Heightened Def Con from 0.000504159 to 0.000504159
Heightened Def Con from 0.000504159 to 0.000504159
Heightened Def Con from 0.000504159 to 0.000504159
Heightened Def Con from 0.000504159 to 0.000504159
Heightened Def Con from 0.000504159 to 0.000504159
Heightened Def Con from 0.000504159 to 0.000504159
Heightened Def Con from 0.000504159 +to 0.000504159
Heightened Def Con from 0.000504159 to 0.000504159
Heightened Def Con from 0.000504159 to 0.000504159
Heightened Def Con from 0.000504159 to 0.000504159
Heightened Def Con from 0.000504159 to 0.000504159
Heightened Def Con from 0.000504159 to 0.000504159
Heightened Def Con from 0.000504159 to 0.000504159
Heightened Def Con from 0.000504159 to 0.000504159
Heightened Def Con from 0.000504159 to 0.000504159
Heightened Def Con from 0.000504159 to 0.000504159
Heightened Def Con from 0.000504159 to 0.000504159
Heightened Def Con from 0.000504159 to 0.000504159
Heightened Def Con from 0.000504159 to 0.000504159
Heightened Def Con from 0.000504159 to 0.000504159
Heightened Def Con from 0.000504159 to 0.000504159
Heightened Def Con from 0.000504159 to 0.000504159
Heightened Def Con from 0.000504159 to 0.000504159
Heightened Def Con from 0.000504159 to 0.000504159
Heightened Def Con from 0.000504159 to 0.000504159
Heightened Def Con from 0.000504159 to 0.000504159
Heightened Def Con from 0.000504159 to 0.000504159
Heightened Def Con from 0.000504159 to 0.000504159
Heightened Def Con from 0.000504159 to 0.000504159
Heightened Def Con from 0.000504159 +to 0.000504159
Heightened Def Con from 0.000504159 to 0.000504159
Heightened Def Con from 0.000504159 to 0.000504159
Heightened Def Con from 0.000504159 to 0.000504159
Heightened Def Con from 0.000504159 to 0.000504159
Heightened Def Con from 0.000504159 to 0.000504159
Heightened Def Con from 0.000504159 to 0.000504159
Heightened Def Con from 0.000504159 to 0.000504159
Heightened Def Con from 0.000504159 to 0.000504159
Heightened Def Con from 0.000504159 to 0.000504159
Heightened Def Con from 0.000504159 to 0.000504159
Heightened Def Con from 0.000504159 to 0.000504159
Heightened Def Con from 0.000504159 to 0.000504159
Heightened Def Con from 0.000504159 to 0.000504159
Heightened Def Con from 0.000504159 to 0.000504159
Heightened Def Con from 0.000504159 +to 0.000504159
Heightened Def Con from 0.000504159 to 0.000504159
Heightened Def Con from 0.000504159 to 0.000504159
Heightened Def Con from 0.000504159 to 0.000504159
Heightened Def Con from 0.000504159 to 0.000504159
Heightened Def Con from 0.000504159 to 0.000504159
Heightened Def Con from 0.000504159 to 0.000504159
Heightened Def Con from 0.000504159 to 0.000504159
Heightened Def Con from 0.000504159 to 0.000504159
Heightened Def Con from 0.000504159 to 0.000504159
Heightened Def Con from 0.000504159 to 0.000504159
Heightened Def Con from 0.000504159 to 0.000504159
Heightened Def Con from 0.000504159 to 0.000504159
Heightened Def Con from 0.000504159 +to 0.000504159
Heightened Def Con from 0.000504159 to 0.000504159
Heightened Def Con from 0.000504159 to 0.000504159
Heightened Def Con from 0.000504159 to 0.000504159
Heightened Def Con from 0.000504159 to 0.000504159
Heightened Def Con from 0.000504159 +to 0.000504159
Heightened Def Con from 0.000504159 to 0.000504159
Heightened Def Con from 0.000504159 to 0.000504159
Heightened Def Con from 0.000504159 to 0.000504159
Heightened Def Con from 0.000504159 to 0.000504159
Heightened Def Con from 0.000504159 ++to 0.000504159
Heightened Def Con from 0.000504159 to 0.000504159
Heightened Def Con from 0.000504159 to 0.000504159
Heightened Def Con from 0.000504159 to 0.000504159
Heightened Def Con from 0.000504159 to 0.000504159
Heightened Def Con from 0.000504159 to 0.000504159
Heightened Def Con from 0.000504159 to 0.000504159
Heightened Def Con from 0.000504159 to 0.000504159
Heightened Def Con from 0.000504159 to 0.000504159
Heightened Def Con from 0.000504159 to 0.000504159
Heightened Def Con from 0.000504159 to 0.000504159
Heightened Def Con from 0.000504159 to 0.000504159
Heightened Def Con from 0.000504159 +to 0.000504159
Heightened Def Con from 0.000504159 to 0.000504159
Heightened Def Con from 0.000504159 to 0.000504159
Heightened Def Con from 0.000504159 to 0.000504159
Heightened Def Con from 0.000504159 to 0.000504159
Heightened Def Con from 0.000504159 to 0.000504159
Heightened Def Con from 0.000504159 to 0.000504159
Heightened Def Con from 0.000504159 to 0.000504159
Heightened Def Con from 0.000504159 to 0.000504159
Heightened Def Con from 0.000504159 to 0.000504159
Heightened Def Con from 0.000504159 to 0.000504159
Heightened Def Con from 0.000504159 to 0.000504159
Heightened Def Con from 0.000504159 to 0.000504159
Heightened Def Con from 0.000504159 to 0.000504159
Heightened Def Con from 0.000504159 to 0.000504159
Heightened Def Con from 0.000504159 to 0.000504159
Heightened Def Con from 0.000504159 to 0.000504159
Heightened Def Con from 0.000504159 to 0.000504159
Heightened Def Con from 0.000504159 to 0.000504159
Heightened Def Con from 0.000504159 to 0.000504159
Heightened Def Con from 0.000504159 to 0.000504159
Heightened Def Con from 0.000504159 to 0.000504159
Heightened Def Con from 0.000504159 to 0.000504159
Heightened Def Con from 0.000504159 to 0.000504159
Heightened Def Con from 0.000504159 to 0.000504159
Heightened Def Con from 0.000504159 to 0.000504159
Heightened Def Con from 0.000504159 ++to 0.000504159
Heightened Def Con from 0.000504159 +to 0.000504159
Heightened Def Con from 0.000504159 to 0.000504159
Heightened Def Con from 0.000504159 to 0.000504159
Heightened Def Con from 0.000504159 +to 0.000504159
Heightened Def Con from 0.000504159 to 0.000504159
Heightened Def Con from 0.000504159 to 0.000504159
Heightened Def Con from 0.000504159 to 0.000504159
Heightened Def Con from 0.000504159 to 0.000504159
Heightened Def Con from 0.000504159 to 0.000504159
Heightened Def Con from 0.000504159 to 0.000504159
Heightened Def Con from 0.000504159 to 0.000504159
Heightened Def Con from 0.000504159 +to 0.000504159
Heightened Def Con from 0.000504159 to 0.000504159
Heightened Def Con from 0.000504159 to 0.000504159
Heightened Def Con from 0.000504159 +to 0.000504159
Heightened Def Con from 0.000504159 to 0.000504159
Heightened Def Con from 0.000504159 to 0.000504159
Heightened Def Con from 0.000504159 to 0.000504159
Heightened Def Con from 0.000504159 to 0.000504159
Heightened Def Con from 0.000504159 to 0.000504159
Heightened Def Con from 0.000504159 to 0.000504159
Heightened Def Con from 0.000504159 to 0.000504159
Heightened Def Con from 0.000504159 to 0.000504159
Heightened Def Con from 0.000504159 to 0.000504159
Heightened Def Con from 0.000504159 to 0.000504159
Heightened Def Con from 0.000504159 to 0.000504159
Heightened Def Con from 0.000504159 to 0.000504159
Heightened Def Con from 0.000504159 to 0.000504159
Heightened Def Con from 0.000504159 to 0.000504159
Heightened Def Con from 0.000504159 to 0.000504159
Heightened Def Con from 0.000504159 to 0.000504159
Heightened Def Con from 0.000504159 to 0.000504159
Heightened Def Con from 0.000504159 to 0.000504159
Heightened Def Con from 0.000504159 to 0.000504159
Heightened Def Con from 0.000504159 to 0.000504159
Heightened Def Con from 0.000504159 to 0.000504159
Heightened Def Con from 0.000504159 to 0.000504159
Heightened Def Con from 0.000504159 to 0.000504159
Heightened Def Con from 0.000504159 to 0.000504159
Heightened Def Con from 0.000504159 to 0.000504159
Heightened Def Con from 0.000504159 +to 0.000504159
Heightened Def Con from 0.000504159 to 0.000504159
Heightened Def Con from 0.000504159 to 0.000504159
Heightened Def Con from 0.000504159 to 0.000504159
Heightened Def Con from 0.000504159 to 0.000504159
Heightened Def Con from 0.000504159 to 0.000504159
Heightened Def Con from 0.000504159 to 0.000504159
Heightened Def Con from 0.000504159 to 0.000504159
Heightened Def Con from 0.000504159 to 0.000504159
Heightened Def Con from 0.000504159 to 0.000504159
Heightened Def Con from 0.000504159 to 0.000504159
Heightened Def Con from 0.000504159 to 0.000504159
Heightened Def Con from 0.000504159 to 0.000504159
Heightened Def Con from 0.000504159 to 0.000504159
Heightened Def Con from 0.000504159 to 0.000504159
Heightened Def Con from 0.000504159 to 0.000504159
Heightened Def Con from 0.000504159 to 0.000504159
Heightened Def Con from 0.000504159 to 0.000504159
Heightened Def Con from 0.000504159 +to 0.000504159
Heightened Def Con from 0.000504159 to 0.000504159
Heightened Def Con from 0.000504159 to 0.000504159
Heightened Def Con from 0.000504159 to 0.000504159
Heightened Def Con from 0.000504159 to 0.000504159
Heightened Def Con from 0.000504159 to 0.000504159
Heightened Def Con from 0.000504159 to 0.000504159
Heightened Def Con from 0.000504159 to 0.000504159
Heightened Def Con from 0.000504159 to 0.000504159
Heightened Def Con from 0.000504159 to 0.000504159
Heightened Def Con from 0.000504159 to 0.000504159
Heightened Def Con from 0.000504159 to 0.000504159
Heightened Def Con from 0.000504159 to 0.000504159
Heightened Def Con from 0.000504159 to 0.000504159
Heightened Def Con from 0.000504159 to 0.000504159
Heightened Def Con from 0.000504159 to 0.000504159
Heightened Def Con from 0.000504159 to 0.000504159
Heightened Def Con from 0.000504159 to 0.000504159
Heightened Def Con from 0.000504159 to 0.000504159
Heightened Def Con from 0.000504159 to 0.000504159
Heightened Def Con from 0.000504159 to 0.000504159
Heightened Def Con from 0.000504159 to 0.000504159
Heightened Def Con from 0.000504159 to 0.000504159
Heightened Def Con from 0.000504159 to 0.000504159
Heightened Def Con from 0.000504159 ++to 0.000504159
Heightened Def Con from 0.000504159 to 0.000504159
Heightened Def Con from 0.000504159 to 0.000504159
Heightened Def Con from 0.000504159 to 0.000504159
Heightened Def Con from 0.000504159 to 0.000504159
Heightened Def Con from 0.000504159 to 0.000504159
Heightened Def Con from 0.000504159 to 0.000504159
Heightened Def Con from 0.000504159 to 0.000504159
Heightened Def Con from 0.000504159 to 0.000504159
Heightened Def Con from 0.000504159 to 0.000504159
Heightened Def Con from 0.000504159 +to 0.000504159
Heightened Def Con from 0.000504159 to 0.000504159
Heightened Def Con from 0.000504159 to 0.000504159
Heightened Def Con from 0.000504159 to 0.000504159
Heightened Def Con from 0.000504159 to 0.000504159
Heightened Def Con from 0.000504159 to 0.000504159
Heightened Def Con from 0.000504159 to 0.000504159
Heightened Def Con from 0.000504159 to 0.000504159
Heightened Def Con from 0.000504159 to 0.000504159
Heightened Def Con from 0.000504159 to 0.000504159
Heightened Def Con from 0.000504159 to 0.000504159
Heightened Def Con from 0.000504159 to 0.000504159
Heightened Def Con from 0.000504159 to 0.000504159
Heightened Def Con from 0.000504159 to 0.000504159
Heightened Def Con from 0.000504159 to 0.000504159
Heightened Def Con from 0.000504159 to 0.000504159
Heightened Def Con from 0.000504159 to 0.000504159
Heightened Def Con from 0.000504159 to 0.000504159
Heightened Def Con from 0.000504159 to 0.000504159
Heightened Def Con from 0.000504159 to 0.000504159
Heightened Def Con from 0.000504159 to 0.000504159
Heightened Def Con from 0.000504159 to 0.000504159
Heightened Def Con from 0.000504159 to 0.000504159
Heightened Def Con from 0.000504159 to 0.000504159
Heightened Def Con from 0.000504159 to 0.000504159
Heightened Def Con from 0.000504159 to 0.000504159
Heightened Def Con from 0.000504159 to 0.000504159
Heightened Def Con from 0.000504159 to 0.000504159
Heightened Def Con from 0.000504159 to 0.000504159
Heightened Def Con from 0.000504159 to 0.000504159
Heightened Def Con from 0.000504159 to 0.000504159
Heightened Def Con from 0.000504159 to 0.000504159
Heightened Def Con from 0.000504159 to 0.000504159
Heightened Def Con from 0.000504159 to 0.000504159
Heightened Def Con from 0.000504159 to 0.000504159
Heightened Def Con from 0.000504159 to 0.000504159
Heightened Def Con from 0.000504159 to 0.000504159
Heightened Def Con from 0.000504159 to 0.000504159
Heightened Def Con from 0.000504159 to 0.000504159
Heightened Def Con from 0.000504159 to 0.000504159
Heightened Def Con from 0.000504159 to 0.000504159
Heightened Def Con from 0.000504159 to 0.000504159
Heightened Def Con from 0.000504159 to 0.000504159
Heightened Def Con from 0.000504159 to 0.000504159
Heightened Def Con from 0.000504159 to 0.000504159
Heightened Def Con from 0.000504159 to 0.000504159
Heightened Def Con from 0.000504159 to 0.000504159
Heightened Def Con from 0.000504159 to 0.000504159
Heightened Def Con from 0.000504159 to 0.000504159
Heightened Def Con from 0.000504159 to 0.000504159
Heightened Def Con from 0.000504159 to 0.000504159
Heightened Def Con from 0.000504159 to 0.000504159
Heightened Def Con from 0.000504159 to 0.000504159
Heightened Def Con from 0.000504159 to 0.000504159
Heightened Def Con from 0.000504159 to 0.000504159
Heightened Def Con from 0.000504159 +to 0.000504159
Heightened Def Con from 0.000504159 to 0.000504159
Heightened Def Con from 0.000504159 to 0.000504159
Heightened Def Con from 0.000504159 to 0.000504159
Heightened Def Con from 0.000504159 +to 0.000504159
Heightened Def Con from 0.000504159 to 0.000504159
Heightened Def Con from 0.000504159 to 0.000504159
Heightened Def Con from 0.000504159 to 0.000504159
Heightened Def Con from 0.000504159 to 0.000504159
Heightened Def Con from 0.000504159 to 0.000504159
Heightened Def Con from 0.000504159 to 0.000504159
Heightened Def Con from 0.000504159 to 0.000504159
Heightened Def Con from 0.000504159 to 0.000504159
Heightened Def Con from 0.000504159 to 0.000504159
Heightened Def Con from 0.000504159 to 0.000504159
Heightened Def Con from 0.000504159 to 0.000504159
Heightened Def Con from 0.000504159 to 0.000504159
Heightened Def Con from 0.000504159 to 0.000504159
Heightened Def Con from 0.000504159 to 0.000504159
Heightened Def Con from 0.000504159 to 0.000504159
Heightened Def Con from 0.000504159 to 0.000504159
Heightened Def Con from 0.000504159 to 0.000504159
Heightened Def Con from 0.000504159 to 0.000504159
Heightened Def Con from 0.000504159 to 0.000504159
Heightened Def Con from 0.000504159 to 0.000504159
Heightened Def Con from 0.000504159 to 0.000504159
Heightened Def Con from 0.000504159 to 0.000504159
Heightened Def Con from 0.000504159 to 0.000504159
Heightened Def Con from 0.000504159 to 0.000504159
Heightened Def Con from 0.000504159 to 0.000504159
Heightened Def Con from 0.000504159 +to 0.000504159
Heightened Def Con from 0.000504159 to 0.000504159
Heightened Def Con from 0.000504159 to 0.000504159
Heightened Def Con from 0.000504159 to 0.000504159
Heightened Def Con from 0.000504159 to 0.000504159
Heightened Def Con from 0.000504159 to 0.000504159
Heightened Def Con from 0.000504159 to 0.000504159
Heightened Def Con from 0.000504159 to 0.000504159
Heightened Def Con from 0.000504159 to 0.000504159
Heightened Def Con from 0.000504159 +to 0.000504159
Heightened Def Con from 0.000504159 to 0.000504159
Heightened Def Con from 0.000504159 to 0.000504159
Heightened Def Con from 0.000504159 to 0.000504159
Heightened Def Con from 0.000504159 to 0.000504159
Heightened Def Con from 0.000504159 to 0.000504159
Heightened Def Con from 0.000504159 to 0.000504159
Heightened Def Con from 0.000504159 to 0.000504159
Heightened Def Con from 0.000504159 to 0.000504159
Heightened Def Con from 0.000504159 to 0.000504159
Heightened Def Con from 0.000504159 to 0.000504159
Heightened Def Con from 0.000504159 to 0.000504159
Heightened Def Con from 0.000504159 to 0.000504159
Heightened Def Con from 0.000504159 to 0.000504159
Heightened Def Con from 0.000504159 to 0.000504159
Heightened Def Con from 0.000504159 to 0.000504159
Heightened Def Con from 0.000504159 to 0.000504159
Heightened Def Con from 0.000504159 to 0.000504159
Heightened Def Con from 0.000504159 to 0.000504159
Heightened Def Con from 0.000504159 to 0.000504159
Heightened Def Con from 0.000504159 to 0.000504159
Heightened Def Con from 0.000504159 ++to 0.000504159
Heightened Def Con from 0.000504159 +to 0.000504159
Heightened Def Con from 0.000504159 to 0.000504159
Heightened Def Con from 0.000504159 to 0.000504159
Heightened Def Con from 0.000504159 to 0.000504159
Heightened Def Con from 0.000504159 to 0.000504159
Heightened Def Con from 0.000504159 to 0.000504159
Heightened Def Con from 0.000504159 to 0.000504159
Heightened Def Con from 0.000504159 to 0.000504159
Heightened Def Con from 0.000504159 to 0.000504159
Heightened Def Con from 0.000504159 to 0.000504159
Heightened Def Con from 0.000504159 to 0.000504159
Heightened Def Con from 0.000504159 to 0.000504159
Heightened Def Con from 0.000504159 to 0.000504159
Heightened Def Con from 0.000504159 to 0.000504159
Heightened Def Con from 0.000504159 to 0.000504159
Heightened Def Con from 0.000504159 to 0.000504159
Heightened Def Con from 0.000504159 to 0.000504159
Heightened Def Con from 0.000504159 to 0.000504159
Heightened Def Con from 0.000504159 to 0.000504159
Heightened Def Con from 0.000504159 to 0.000504159
Heightened Def Con from 0.000504159 to 0.000504159
Heightened Def Con from 0.000504159 to 0.000504159
Heightened Def Con from 0.000504159 to 0.000504159
Heightened Def Con from 0.000504159 ++to 0.000504159
Heightened Def Con from 0.000504159 to 0.000504159
Heightened Def Con from 0.000504159 +to 0.000504159
Heightened Def Con from 0.000504159 to 0.000504159
Heightened Def Con from 0.000504159 to 0.000504159
Heightened Def Con from 0.000504159 to 0.000504159
Heightened Def Con from 0.000504159 to 0.000504159
Heightened Def Con from 0.000504159 to 0.000504159
Heightened Def Con from 0.000504159 to 0.000504159
Heightened Def Con from 0.000504159 to 0.000504159
Heightened Def Con from 0.000504159 to 0.000504159
Heightened Def Con from 0.000504159 to 0.000504159
Heightened Def Con from 0.000504159 to 0.000504159
Heightened Def Con from 0.000504159 +to 0.000504159
Heightened Def Con from 0.000504159 to 0.000504159
Heightened Def Con from 0.000504159 to 0.000504159
Heightened Def Con from 0.000504159 to 0.000504159
Heightened Def Con from 0.000504159 to 0.000504159
Heightened Def Con from 0.000504159 to 0.000504159
Heightened Def Con from 0.000504159 to 0.000504159
Heightened Def Con from 0.000504159 to 0.000504159
Heightened Def Con from 0.000504159 to 0.000504159
Heightened Def Con from 0.000504159 to 0.000504159
Heightened Def Con from 0.000504159 to 0.000504159
Heightened Def Con from 0.000504159 to 0.000504159
Heightened Def Con from 0.000504159 to 0.000504159
Heightened Def Con from 0.000504159 to 0.000504159
Heightened Def Con from 0.000504159 to 0.000504159
Heightened Def Con from 0.000504159 to 0.000504159
Heightened Def Con from 0.000504159 to 0.000504159
Heightened Def Con from 0.000504159 to 0.000504159
Heightened Def Con from 0.000504159 to 0.000504159
Heightened Def Con from 0.000504159 to 0.000504159
Heightened Def Con from 0.000504159 to 0.000504159
Heightened Def Con from 0.000504159 to 0.000504159
Heightened Def Con from 0.000504159 to 0.000504159
Heightened Def Con from 0.000504159 to 0.000504159
Heightened Def Con from 0.000504159 to 0.000504159
Heightened Def Con from 0.000504159 to 0.000504159
Heightened Def Con from 0.000504159 to 0.000504159
Heightened Def Con from 0.000504159 to 0.000504159
Heightened Def Con from 0.000504159 to 0.000504159
Heightened Def Con from 0.000504159 to 0.000504159
Heightened Def Con from 0.000504159 to 0.000504159
Heightened Def Con from 0.000504159 to 0.000504159
Heightened Def Con from 0.000504159 to 0.000504159
Heightened Def Con from 0.000504159 to 0.000504159
Heightened Def Con from 0.000504159 to 0.000504159
Heightened Def Con from 0.000504159 to 0.000504159
Heightened Def Con from 0.000504159 to 0.000504159
Heightened Def Con from 0.000504159 to 0.000504159
Heightened Def Con from 0.000504159 +to 0.000504159
Heightened Def Con from 0.000504159 to 0.000504159
Heightened Def Con from 0.000504159 to 0.000504159
Heightened Def Con from 0.000504159 to 0.000504159
Heightened Def Con from 0.000504159 to 0.000504159
Heightened Def Con from 0.000504159 to 0.000504159
Heightened Def Con from 0.000504159 +to 0.000504159
[...]
Heightened Def Con from 0.00490416 +to 0.00490416
Heightened Def Con from 0.00490416 to 0.00490416
Heightened Def Con from 0.00490416 to 0.00490416
Heightened Def Con from 0.00490416 to 0.00490416
Heightened Def Con from 0.00490416 to 0.00490416
Heightened Def Con from 0.00490416 to 0.00490416
Heightened Def Con from 0.00490416 to 0.00490416
Heightened Def Con from 0.00490416 to 0.00490416
Heightened Def Con from 0.00490416 to 0.00490416
Heightened Def Con from 0.00490416 to 0.00490416
Heightened Def Con from 0.00490416 to 0.00490416
Heightened Def Con from 0.00490416 to 0.00490416
Heightened Def Con from 0.00490416 to 0.00490416
Heightened Def Con from 0.00490416 to 0.00490416
Heightened Def Con from 0.00490416 +to 0.00490416
Heightened Def Con from 0.00490416 to 0.00490416
Heightened Def Con from 0.00490416 to 0.00490416
Heightened Def Con from 0.00490416 to 0.00490416
Heightened Def Con from 0.00490416 +to 0.00490416
Heightened Def Con from 0.00490416 to 0.00490416
Heightened Def Con from 0.00490416 to 0.00490416
Heightened Def Con from 0.00490416 to 0.00490416
Heightened Def Con from 0.00490416 to 0.00490416
Heightened Def Con from 0.00490416 to 0.00490416
Heightened Def Con from 0.00490416 to 0.00490416
Heightened Def Con from 0.00490416 to 0.00490416
Heightened Def Con from 0.00490416 to 0.00490416
Heightened Def Con from 0.00490416 +to 0.00490416
Heightened Def Con from 0.00490416 to 0.00490416
Heightened Def Con from 0.00490416 to 0.00490416
Heightened Def Con from 0.00490416 to 0.00490416
Heightened Def Con from 0.00490416 to 0.00490416
Heightened Def Con from 0.00490416 to 0.00490416
Heightened Def Con from 0.00490416 to 0.00490416
Heightened Def Con from 0.00490416 to 0.00490416
Heightened Def Con from 0.00490416 to 0.00490416
Heightened Def Con from 0.00490416 to 0.00490416
Heightened Def Con from 0.00490416 to 0.00490416
Heightened Def Con from 0.00490416 to 0.00490416
Heightened Def Con from 0.00490416 to 0.00490416
Heightened Def Con from 0.00490416 to 0.00490416
Heightened Def Con from 0.00490416 to 0.00490416
Heightened Def Con from 0.00490416 to 0.00490416
Heightened Def Con from 0.00490416 to 0.00490416
Heightened Def Con from 0.00490416 to 0.00490416
Heightened Def Con from 0.00490416 to 0.00490416
Heightened Def Con from 0.00490416 +to 0.00490416
Heightened Def Con from 0.00490416 to 0.00490416
Heightened Def Con from 0.00490416 to 0.00490416
Heightened Def Con from 0.00490416 to 0.00490416
Heightened Def Con from 0.00490416 to 0.00490416
Heightened Def Con from 0.00490416 to 0.00490416
Heightened Def Con from 0.00490416 to 0.00490416
Heightened Def Con from 0.00490416 to 0.00490416
Heightened Def Con from 0.00490416 to 0.00490416
Heightened Def Con from 0.00490416 to 0.00490416
Heightened Def Con from 0.00490416 to 0.00490416
Heightened Def Con from 0.00490416 to 0.00490416
Heightened Def Con from 0.00490416 to 0.00490416
Heightened Def Con from 0.00490416 to 0.00490416
Heightened Def Con from 0.00490416 to 0.00490416
Heightened Def Con from 0.00490416 +to 0.00490416
Heightened Def Con from 0.00490416 to 0.00490416
Heightened Def Con from 0.00490416 to 0.00490416
Heightened Def Con from 0.00490416 to 0.00490416
Heightened Def Con from 0.00490416 to 0.00490416
Heightened Def Con from 0.00490416 to 0.00490416
Heightened Def Con from 0.00490416 to 0.00490416
Heightened Def Con from 0.00490416 to 0.00490416
Heightened Def Con from 0.00490416 to 0.00490416
Heightened Def Con from 0.00490416 to 0.00490416
Heightened Def Con from 0.00490416 to 0.00490416
Heightened Def Con from 0.00490416 to 0.00490416
Heightened Def Con from 0.00490416 to 0.00490416
Heightened Def Con from 0.00490416 to 0.00490416
Heightened Def Con from 0.00490416 to 0.00490416
Heightened Def Con from 0.00490416 to 0.00490416
Heightened Def Con from 0.00490416 to 0.00490416
Heightened Def Con from 0.00490416 +to 0.00490416
Heightened Def Con from 0.00490416 to 0.00490416
Heightened Def Con from 0.00490416 to 0.00490416
Heightened Def Con from 0.00490416 to 0.00490416
Heightened Def Con from 0.00490416 to 0.00490416
Heightened Def Con from 0.00490416 to 0.00490416
Heightened Def Con from 0.00490416 to 0.00490416
Heightened Def Con from 0.00490416 to 0.00490416
Heightened Def Con from 0.00490416 +to 0.00490416
Heightened Def Con from 0.00490416 to 0.00490416
Heightened Def Con from 0.00490416 to 0.00490416
Heightened Def Con from 0.00490416 to 0.00490416
Heightened Def Con from 0.00490416 to 0.00490416
Heightened Def Con from 0.00490416 to 0.00490416
Heightened Def Con from 0.00490416 to 0.00490416
Heightened Def Con from 0.00490416 to 0.00490416
Heightened Def Con from 0.00490416 to 0.00490416
Heightened Def Con from 0.00490416 to 0.00490416
Heightened Def Con from 0.00490416 to 0.00490416
Heightened Def Con from 0.00490416 to 0.00490416
Heightened Def Con from 0.00490416 to 0.00490416
Heightened Def Con from 0.00490416 to 0.00490416
Heightened Def Con from 0.00490416 to 0.00490416
Heightened Def Con from 0.00490416 to 0.00490416
Heightened Def Con from 0.00490416 to 0.00490416
Heightened Def Con from 0.00490416 to 0.00490416
Heightened Def Con from 0.00490416 to 0.00490416
Heightened Def Con from 0.00490416 to 0.00490416
Heightened Def Con from 0.00490416 to 0.00490416
Heightened Def Con from 0.00490416 +to 0.00490416
Heightened Def Con from 0.00490416 to 0.00490416
Heightened Def Con from 0.00490416 to 0.00490416
Heightened Def Con from 0.00490416 to 0.00490416
Heightened Def Con from 0.00490416 to 0.00490416
Heightened Def Con from 0.00490416 to 0.00490416
Heightened Def Con from 0.00490416 to 0.00490416
Heightened Def Con from 0.00490416 to 0.00490416
Heightened Def Con from 0.00490416 to 0.00490416
Heightened Def Con from 0.00490416 to 0.00490416
Heightened Def Con from 0.00490416 to 0.00490416
Heightened Def Con from 0.00490416 to 0.00490416
Heightened Def Con from 0.00490416 to 0.00490416
Heightened Def Con from 0.00490416 to 0.00490416
Heightened Def Con from 0.00490416 to 0.00490416
Heightened Def Con from 0.00490416 to 0.00490416
Heightened Def Con from 0.00490416 to 0.00490416
Heightened Def Con from 0.00490416 to 0.00490416
Heightened Def Con from 0.00490416 to 0.00490416
Heightened Def Con from 0.00490416 to 0.00490416
Heightened Def Con from 0.00490416 to 0.00490416
Heightened Def Con from 0.00490416 to 0.00490416
Heightened Def Con from 0.00490416 to 0.00490416
Heightened Def Con from 0.00490416 +to 0.00490416
Heightened Def Con from 0.00490416 to 0.00490416
Heightened Def Con from 0.00490416 to 0.00490416
Heightened Def Con from 0.00490416 to 0.00490416
Heightened Def Con from 0.00490416 to 0.00490416
Heightened Def Con from 0.00490416 to 0.00490416
Heightened Def Con from 0.00490416 to 0.00490416
Heightened Def Con from 0.00490416 to 0.00490416
Heightened Def Con from 0.00490416 to 0.00490416
Heightened Def Con from 0.00490416 to 0.00490416
Heightened Def Con from 0.00490416 to 0.00490416
Heightened Def Con from 0.00490416 to 0.00490416
Heightened Def Con from 0.00490416 to 0.00490416
Heightened Def Con from 0.00490416 to 0.00490416
Heightened Def Con from 0.00490416 to 0.00490416
Heightened Def Con from 0.00490416 to 0.00490416
Heightened Def Con from 0.00490416 to 0.00490416
Heightened Def Con from 0.00490416 to 0.00490416
Heightened Def Con from 0.00490416 to 0.00490416
Heightened Def Con from 0.00490416 to 0.00490416
Heightened Def Con from 0.00490416 to 0.00490416
Heightened Def Con from 0.00490416 to 0.00490416
Heightened Def Con from 0.00490416 to 0.00490416
Heightened Def Con from 0.00490416 to 0.00490416
Heightened Def Con from 0.00490416 to 0.00490416
Heightened Def Con from 0.00490416 to 0.00490416
Heightened Def Con from 0.00490416 to 0.00490416
Heightened Def Con from 0.00490416 to 0.00490416
Heightened Def Con from 0.00490416 to 0.00490416
Heightened Def Con from 0.00490416 to 0.00490416
Heightened Def Con from 0.00490416 to 0.00490416
Heightened Def Con from 0.00490416 to 0.00490416
Heightened Def Con from 0.00490416 to 0.00490416
Heightened Def Con from 0.00490416 to 0.00490416
Heightened Def Con from 0.00490416 to 0.00490416
Heightened Def Con from 0.00490416 +to 0.00490416
Heightened Def Con from 0.00490416 to 0.00490416
Heightened Def Con from 0.00490416 to 0.00490416
Heightened Def Con from 0.00490416 to 0.00490416
Heightened Def Con from 0.00490416 to 0.00490416
Heightened Def Con from 0.00490416 to 0.00490416
Heightened Def Con from 0.00490416 to 0.00490416
Heightened Def Con from 0.00490416 to 0.00490416
Heightened Def Con from 0.00490416 to 0.00490416
Heightened Def Con from 0.00490416 to 0.00490416
Heightened Def Con from 0.00490416 to 0.00490416
Heightened Def Con from 0.00490416 to 0.00490416
Heightened Def Con from 0.00490416 to 0.00490416
Heightened Def Con from 0.00490416 to 0.00490416
Heightened Def Con from 0.00490416 to 0.00490416
Heightened Def Con from 0.00490416 to 0.00490416
Heightened Def Con from 0.00490416 to 0.00490416
Heightened Def Con from 0.00490416 to 0.00490416
Heightened Def Con from 0.00490416 to 0.00490416
Heightened Def Con from 0.00490416 to 0.00490416
Heightened Def Con from 0.00490416 to 0.00490416
Heightened Def Con from 0.00490416 +to 0.00490416
Heightened Def Con from 0.00490416 to 0.00490416
Heightened Def Con from 0.00490416 to 0.00490416
Heightened Def Con from 0.00490416 to 0.00490416
Heightened Def Con from 0.00490416 to 0.00490416
Heightened Def Con from 0.00490416 to 0.00490416
Heightened Def Con from 0.00490416 to 0.00490416
Heightened Def Con from 0.00490416 to 0.00490416
Heightened Def Con from 0.00490416 to 0.00490416
Heightened Def Con from 0.00490416 to 0.00490416
Heightened Def Con from 0.00490416 to 0.00490416
Heightened Def Con from 0.00490416 to 0.00490416
Heightened Def Con from 0.00490416 to 0.00490416
Heightened Def Con from 0.00490416 to 0.00490416
Heightened Def Con from 0.00490416 +to 0.00490416
Heightened Def Con from 0.00490416 to 0.00490416
Heightened Def Con from 0.00490416 to 0.00490416
Heightened Def Con from 0.00490416 to 0.00490416
Heightened Def Con from 0.00490416 to 0.00490416
Heightened Def Con from 0.00490416 to 0.00490416
Heightened Def Con from 0.00490416 to 0.00490416
Heightened Def Con from 0.00490416 to 0.00490416
Heightened Def Con from 0.00490416 to 0.00490416
Heightened Def Con from 0.00490416 to 0.00490416
Heightened Def Con from 0.00490416 to 0.00490416
Heightened Def Con from 0.00490416 to 0.00490416
Heightened Def Con from 0.00490416 to 0.00490416
Heightened Def Con from 0.00490416 to 0.00490416
Heightened Def Con from 0.00490416 to 0.00490416
Heightened Def Con from 0.00490416 to 0.00490416
Heightened Def Con from 0.00490416 +to 0.00490416
Heightened Def Con from 0.00490416 to 0.00490416
Heightened Def Con from 0.00490416 to 0.00490416
Heightened Def Con from 0.00490416 to 0.00490416
Heightened Def Con from 0.00490416 +to 0.00490416
Heightened Def Con from 0.00490416 to 0.00490416
Heightened Def Con from 0.00490416 +to 0.00490416
Heightened Def Con from 0.00490416 to 0.00490416
Heightened Def Con from 0.00490416 +to 0.00490416
Heightened Def Con from 0.00490416 to 0.00490416
Heightened Def Con from 0.00490416 to 0.00490416
Heightened Def Con from 0.00490416 to 0.00490416
Heightened Def Con from 0.00490416 to 0.00490416
Heightened Def Con from 0.00490416 to 0.00490416
Heightened Def Con from 0.00490416 to 0.00490416
Heightened Def Con from 0.00490416 to 0.00490416
Heightened Def Con from 0.00490416 to 0.00490416
Heightened Def Con from 0.00490416 to 0.00490416
Heightened Def Con from 0.00490416 to 0.00490416
Heightened Def Con from 0.00490416 to 0.00490416
Heightened Def Con from 0.00490416 to 0.00490416
Heightened Def Con from 0.00490416 to 0.00490416
Heightened Def Con from 0.00490416 to 0.00490416
Heightened Def Con from 0.00490416 to 0.00490416
Heightened Def Con from 0.00490416 to 0.00490416
Heightened Def Con from 0.00490416 to 0.00490416
Heightened Def Con from 0.00490416 to 0.00490416
Heightened Def Con from 0.00490416 to 0.00490416
Heightened Def Con from 0.00490416 +to 0.00490416
Heightened Def Con from 0.00490416 to 0.00490416
Heightened Def Con from 0.00490416 to 0.00490416
Heightened Def Con from 0.00490416 +to 0.00490416
Heightened Def Con from 0.00490416 to 0.00490416
Heightened Def Con from 0.00490416 to 0.00490416
Heightened Def Con from 0.00490416 to 0.00490416
Heightened Def Con from 0.00490416 to 0.00490416
Heightened Def Con from 0.00490416 to 0.00490416
Heightened Def Con from 0.00490416 to 0.00490416
Heightened Def Con from 0.00490416 to 0.00490416
Heightened Def Con from 0.00490416 to 0.00490416
Heightened Def Con from 0.00490416 to 0.00490416
Heightened Def Con from 0.00490416 to 0.00490416
Heightened Def Con from 0.00490416 to 0.00490416
Heightened Def Con from 0.00490416 to 0.00490416
Heightened Def Con from 0.00490416 to 0.00490416
Heightened Def Con from 0.00490416 to 0.00490416
Heightened Def Con from 0.00490416 to 0.00490416
Heightened Def Con from 0.00490416 to 0.00490416
Heightened Def Con from 0.00490416 to 0.00490416
Heightened Def Con from 0.00490416 to 0.00490416
Heightened Def Con from 0.00490416 to 0.00490416
Heightened Def Con from 0.00490416 to 0.00490416
Heightened Def Con from 0.00490416 to 0.00490416
Heightened Def Con from 0.00490416 to 0.00490416
Heightened Def Con from 0.00490416 to 0.00490416
Heightened Def Con from 0.00490416 to 0.00490416
Heightened Def Con from 0.00490416 to 0.00490416
Heightened Def Con from 0.00490416 to 0.00490416
Heightened Def Con from 0.00490416 to 0.00490416
Heightened Def Con from 0.00490416 to 0.00490416
Heightened Def Con from 0.00490416 to 0.00490416
Heightened Def Con from 0.00490416 to 0.00490416
Heightened Def Con from 0.00490416 to 0.00490416
Heightened Def Con from 0.00490416 to 0.00490416
Heightened Def Con from 0.00490416 to 0.00490416
Heightened Def Con from 0.00490416 to 0.00490416
Heightened Def Con from 0.00490416 to 0.00490416
Heightened Def Con from 0.00490416 to 0.00490416
Heightened Def Con from 0.00490416 to 0.00490416
Heightened Def Con from 0.00490416 to 0.00490416
Heightened Def Con from 0.00490416 to 0.00490416
Heightened Def Con from 0.00490416 +to 0.00490416
Heightened Def Con from 0.00490416 to 0.00490416
Heightened Def Con from 0.00490416 to 0.00490416
Heightened Def Con from 0.00490416 to 0.00490416
Heightened Def Con from 0.00490416 to 0.00490416
Heightened Def Con from 0.00490416 to 0.00490416
Heightened Def Con from 0.00490416 to 0.00490416
Heightened Def Con from 0.00490416 to 0.00490416
Heightened Def Con from 0.00490416 +to 0.00490416
Heightened Def Con from 0.00490416 to 0.00490416
Heightened Def Con from 0.00490416 to 0.00490416
Heightened Def Con from 0.00490416 to 0.00490416
Heightened Def Con from 0.00490416 to 0.00490416
Heightened Def Con from 0.00490416 to 0.00490416
Heightened Def Con from 0.00490416 to 0.00490416
Heightened Def Con from 0.00490416 to 0.00490416
Heightened Def Con from 0.00490416 to 0.00490416
Heightened Def Con from 0.00490416 to 0.00490416
Heightened Def Con from 0.00490416 to 0.00490416
Heightened Def Con from 0.00490416 to 0.00490416
Heightened Def Con from 0.00490416 to 0.00490416
Heightened Def Con from 0.00490416 +to 0.00490416
Heightened Def Con from 0.00490416 to 0.00490416
Heightened Def Con from 0.00490416 to 0.00490416
Heightened Def Con from 0.00490416 to 0.00490416
Heightened Def Con from 0.00490416 to 0.00490416
Heightened Def Con from 0.00490416 to 0.00490416
Heightened Def Con from 0.00490416 to 0.00490416
Heightened Def Con from 0.00490416 to 0.00490416
Heightened Def Con from 0.00490416 to 0.00490416
Heightened Def Con from 0.00490416 to 0.00490416
Heightened Def Con from 0.00490416 to 0.00490416
Heightened Def Con from 0.00490416 +to 0.00490416
Heightened Def Con from 0.00490416 to 0.00490416
Heightened Def Con from 0.00490416 to 0.00490416
Heightened Def Con from 0.00490416 to 0.00490416
Heightened Def Con from 0.00490416 to 0.00490416
Heightened Def Con from 0.00490416 to 0.00490416
Heightened Def Con from 0.00490416 to 0.00490416
Heightened Def Con from 0.00490416 to 0.00490416
Heightened Def Con from 0.00490416 to 0.00490416
Heightened Def Con from 0.00490416 to 0.00490416
Heightened Def Con from 0.00490416 to 0.00490416
Heightened Def Con from 0.00490416 to 0.00490416
Heightened Def Con from 0.00490416 to 0.00490416
Heightened Def Con from 0.00490416 to 0.00490416
Heightened Def Con from 0.00490416 to 0.00490416
Heightened Def Con from 0.00490416 to 0.00490416
Heightened Def Con from 0.00490416 to 0.00490416
Heightened Def Con from 0.00490416 to 0.00490416
Heightened Def Con from 0.00490416 to 0.00490416
Heightened Def Con from 0.00490416 to 0.00490416
Heightened Def Con from 0.00490416 to 0.00490416
Heightened Def Con from 0.00490416 +to 0.00490416
Heightened Def Con from 0.00490416 to 0.00490416
Heightened Def Con from 0.00490416 +to 0.00490416
Heightened Def Con from 0.00490416 to 0.00490416
Heightened Def Con from 0.00490416 to 0.00490416
Heightened Def Con from 0.00490416 to 0.00490416
Heightened Def Con from 0.00490416 to 0.00490416
Heightened Def Con from 0.00490416 to 0.00490416
Heightened Def Con from 0.00490416 to 0.00490416
Heightened Def Con from 0.00490416 to 0.00490416
Heightened Def Con from 0.00490416 to 0.00490416
Heightened Def Con from 0.00490416 to 0.00490416
Heightened Def Con from 0.00490416 to 0.00490416
Heightened Def Con from 0.00490416 to 0.00490416
Heightened Def Con from 0.00490416 to 0.00490416
Heightened Def Con from 0.00490416 to 0.00490416
Heightened Def Con from 0.00490416 to 0.00490416
Heightened Def Con from 0.00490416 +to 0.00490416
Heightened Def Con from 0.00490416 +to 0.00490416
Heightened Def Con from 0.00490416 to 0.00490416
Heightened Def Con from 0.00490416 to 0.00490416
Heightened Def Con from 0.00490416 to 0.00490416
Heightened Def Con from 0.00490416 to 0.00490416
Heightened Def Con from 0.00490416 to 0.00490416
Heightened Def Con from 0.00490416 to 0.00490416
Heightened Def Con from 0.00490416 to 0.00490416
Heightened Def Con from 0.00490416 to 0.00490416
Heightened Def Con from 0.00490416 to 0.00490416
Heightened Def Con from 0.00490416 to 0.00490416
Heightened Def Con from 0.00490416 to 0.00490416
Heightened Def Con from 0.00490416 to 0.00490416
Heightened Def Con from 0.00490416 to 0.00490416
Heightened Def Con from 0.00490416 to 0.00490416
Heightened Def Con from 0.00490416 to 0.00490416
Heightened Def Con from 0.00490416 to 0.00490416
Heightened Def Con from 0.00490416 to 0.00490416
Heightened Def Con from 0.00490416 to 0.00490416
Heightened Def Con from 0.00490416 to 0.00490416
Heightened Def Con from 0.00490416 to 0.00490416
Heightened Def Con from 0.00490416 to 0.00490416
Heightened Def Con from 0.00490416 to 0.00490416
Heightened Def Con from 0.00490416 +to 0.00490416
Heightened Def Con from 0.00490416 to 0.00490416
Heightened Def Con from 0.00490416 to 0.00490416
Heightened Def Con from 0.00490416 to 0.00490416
Heightened Def Con from 0.00490416 +to 0.00490416
Heightened Def Con from 0.00490416 to 0.00490416
Heightened Def Con from 0.00490416 to 0.00490416
Heightened Def Con from 0.00490416 to 0.00490416
Heightened Def Con from 0.00490416 to 0.00490416
Heightened Def Con from 0.00490416 to 0.00490416
Heightened Def Con from 0.00490416 to 0.00490416
Heightened Def Con from 0.00490416 to 0.00490416
Heightened Def Con from 0.00490416 +to 0.00490416
Heightened Def Con from 0.00490416 to 0.00490416
Heightened Def Con from 0.00490416 to 0.00490416
Heightened Def Con from 0.00490416 to 0.00490416
Heightened Def Con from 0.00490416 to 0.00490417

Date: Wed Nov 10 20:26:00 2021
Total elapsed time: 248.432 seconds.

tnom = 27
temp = 27
method = modified trap
totiter = 5768974
traniter = 5767210
tranpoints = 618775
accept = 226449
rejected = 426734
matrix size = 264
fillins = 132
solver = Normal
Thread vector: 19.7/11.5[8] 10.8/4.2[8] 37.8/10.6[8] 0.8/2.7[1]  2592/500
Matrix Compiler1: 14.81 KB object code size  8.0/3.7/[1.5]
Matrix Compiler2: 19.15 KB object code size  5.8/8.2/[0.9]

